2023-02-16T10:35:46,914  INFO Gbl:64 JVM: 18.0.2; Amazon.com Inc.; mixed mode, sharing; 64-bit
2023-02-16T10:35:46,915  INFO Gbl:68 OS: Windows 10; 10.0; amd64
2023-02-16T10:35:46,916  INFO Gbl:71 CPU cores: 12
2023-02-16T10:35:46,918  INFO Gbl:72 max. Memory: 12000.0MB (12582912000B)
2023-02-16T10:35:46,918  INFO Gbl:110 MATSim-Build: r ()
2023-02-16T10:35:46,924  INFO ControlerListenerManagerImpl:108 calling notifyStartup on org.matsim.guice.DependencyGraphControlerListener
2023-02-16T10:35:46,924  INFO MemoryObserver:42 used RAM: 308 MB  free: 171 MB  total: 480 MB
2023-02-16T10:35:47,063  INFO ControlerListenerManagerImpl:108 calling notifyStartup on org.matsim.counts.CountsControlerListener
2023-02-16T10:35:47,064  INFO ControlerListenerManagerImpl:108 calling notifyStartup on org.matsim.analysis.ModeStatsControlerListener
2023-02-16T10:35:47,064  INFO ControlerListenerManagerImpl:108 calling notifyStartup on org.matsim.analysis.ScoreStatsControlerListener
2023-02-16T10:35:47,065  INFO ControlerListenerManagerImpl:111 all ControlerStartupListeners called.
2023-02-16T10:35:47,065  INFO ControlerUtils:80 config dump before iterations start
2023-02-16T10:35:47,090  INFO ControlerUtils:84 

<?xml version="1.0" encoding="UTF-8"?>
<!DOCTYPE config SYSTEM "http://www.matsim.org/files/dtd/config_v2.dtd">
<config>
	<module name="DiscreteModeChoice" >
		<param name="accumulateEstimationDelays" value="true" />
		<!-- Trips tested with the modes listed here will be cached for each combination of trip and agent during one replanning pass. -->
		<param name="cachedModes" value="pt, car, walk, bike" />
		<!-- Defines whether to run a runtime check that verifies that everything is set up correctl for a 'mode-choice-in-the-loop' setup. -->
		<param name="enforceSinglePlan" value="false" />
		<!-- Defines what happens if there is no feasible choice alternative for an agent: IGNORE_AGENT, INITIAL_CHOICE, EXCEPTION -->
		<param name="fallbackBehaviour" value="EXCEPTION" />
		<!-- Defines how home activities are identified. Built-in choices: FirstActivity, ActivityBased -->
		<param name="homeFinder" value="ActivityBased" />
		<!-- Defines which ModeAvailability component to use. Built-in choices: Default, Car -->
		<param name="modeAvailability" value="Default" />
		<!-- Main model type: Trip, Tour -->
		<param name="modelType" value="Tour" />
		<!-- Defines whether the DiscreteModeChoice strategy should be followed by a rerouting of all trips. If the estimator returns alternatives with routes attached this is not necessary. -->
		<param name="performReroute" value="true" />
		<!-- Defines which Selector component to use. Built-in choices: Maximum, MultinomialLogit, Random -->
		<param name="selector" value="Random" />
		<!-- Defines a number of TourConstraint components that should be activated. Built-in choices: FromTripBased, VehicleContinuity, SubtourMode -->
		<param name="tourConstraints" value="VehicleContinuity, SubtourMode" />
		<!-- Defines which TourEstimator component to use. Built-in choices: MATSimDayScoring, Cumulative, Uniform -->
		<param name="tourEstimator" value="Uniform" />
		<!-- Defines a number of TourFilter components that should be activated. Built-in choices: TourLength -->
		<param name="tourFilters" value="" />
		<!-- Defines which TourFinder component to use. Built-in choices: PlanBased, ActivityBased, HomeBased -->
		<param name="tourFinder" value="PlanBased" />
		<!-- Defines a number of TripConstraint components that should be activated. Built-in choices: VehicleContinuity, ShapeFile, LinkAttribute, TransitWalk -->
		<param name="tripConstraints" value="VehicleContinuity" />
		<!-- Defines which TripEstimator component to use. Built-in choices: MATSimTripScoring, Uniform -->
		<param name="tripEstimator" value="Uniform" />
		<!-- Defines a number of TripFilter components that should be activated. Built-in choices:  -->
		<param name="tripFilters" value="" />
		<parameterset type="homeFinder:ActivityBased" >
			<!-- Comma-separated activity types which should be considered as home. -->
			<param name="activityTypes" value="home" />
		</parameterset>
		<parameterset type="modeAvailability:Car" >
			<!-- Defines which modes are avialable to the agents. -->
			<param name="availableModes" value="pt, car, walk, bike" />
		</parameterset>
		<parameterset type="modeAvailability:Default" >
			<!-- Defines which modes are avialable to the agents. -->
			<param name="availableModes" value="pt, car, walk, bike" />
		</parameterset>
		<parameterset type="selector:MultinomialLogit" >
			<!-- Defines whether candidates with a utility lower than the minimum utility should be filtered out. -->
			<param name="considerMinimumUtility" value="false" />
			<!-- Candidates with a utility above that threshold will be cut off to this value. -->
			<param name="maximumUtility" value="700.0" />
			<!-- Candidates with a utility lower than that threshold will not be considered by default. -->
			<param name="minimumUtility" value="-700.0" />
		</parameterset>
		<parameterset type="tourConstraint:SubtourMode" >
			<!-- Modes for which the sub-tour behaviour should be replicated. If all available modes are put here, this equals to SubTourModeChoice with singleLegProbability == 0.0; if only the constrained modes are put here, it equals singleLegProbability > 0.0 -->
			<param name="constrainedModes" value="" />
		</parameterset>
		<parameterset type="tourConstraint:VehicleContinuity" >
			<!-- Defines which modes must fulfill continuity constraints (can only be used where they have been brough to before) -->
			<param name="restrictedModes" value="car, bike" />
		</parameterset>
		<parameterset type="tourFilter:TourLength" >
			<!-- Defines the maximum allowed length of a tour. -->
			<param name="maximumLength" value="10" />
		</parameterset>
		<parameterset type="tourFinder:ActivityBased" >
			<!-- Comma-separated activity types which should be considered as start and end of a tour. If a plan does not start or end with such an activity additional tours are added. -->
			<param name="activityTypes" value="home" />
		</parameterset>
		<parameterset type="tripConstraint:LinkAttribute" >
			<!-- Link attribute that will be considered for feasibility of the trip. -->
			<param name="attributeName" value="null" />
			<!-- Value that the link attributes should equal. -->
			<param name="attributeValue" value="null" />
			<!-- Modes for which the constraint will be considered. -->
			<param name="constrainedModes" value="" />
			<!-- Defines the criterion on when a trip with the constrained mode will be allowed: ORIGIN, DESTINATION, BOTH, ANY, NONE -->
			<param name="requirement" value="BOTH" />
		</parameterset>
		<parameterset type="tripConstraint:ShapeFile" >
			<!-- Modes for which the shapes will be considered. -->
			<param name="constrainedModes" value="" />
			<!-- Path to a shape file, which should have the same projection as the network. -->
			<param name="path" value="null" />
			<!-- Defines the criterion on when a trip with the constrained mode will be allowed: ORIGIN, DESTINATION, BOTH, ANY, NONE -->
			<param name="requirement" value="BOTH" />
		</parameterset>
		<parameterset type="tripConstraint:VehicleContinuity" >
			<!-- Defines if the advanced constriant is used (vehicles must be brought back home). -->
			<param name="isAdvanced" value="true" />
			<!-- Defines which modes must fulfill continuity constraints (can only be used where they have been brough to before) -->
			<param name="restrictedModes" value="car, bike" />
		</parameterset>
		<parameterset type="tripEstimator:MATSimTripScoring" >
			<!-- Modes which are considered as public transit, i.e. they involve waiting for a vehicle. -->
			<param name="ptLegModes" value="pt" />
		</parameterset>
	</module>
	<module name="JDEQSim" >
		<param name="carSize" value="7.5" />
		<param name="endTime" value="undefined" />
		<param name="flowCapacityFactor" value="1.0" />
		<param name="gapTravelSpeed" value="15.0" />
		<param name="minimumInFlowCapacity" value="1800.0" />
		<param name="squeezeTime" value="1800.0" />
		<param name="storageCapacityFactor" value="1.0" />
	</module>
	<module name="ReplanningAnnealer" >
		<!-- Activate the scaling of replanning modules using an annealing approach rather than fixed rates. -->
		<param name="activateAnnealingModule" value="false" />
	</module>
	<module name="TimeAllocationMutator" >
		<!-- Default:true; Defines whether time mutation changes an activity's duration. -->
		<param name="mutationAffectsDuration" value="true" />
		<!-- Default:1800.0; Defines how many seconds a time mutation can maximally shift a time. -->
		<param name="mutationRange" value="1800.0" />
	</module>
	<module name="changeMode" >
		<!-- Defines whether car availability is considered be considered or not. An agent has no car only if it has no license, or never access to a car. Default: true -->
		<param name="ignoreCarAvailability" value="true" />
		<!-- Defines the mode switch behavior. Possible values [fromAllModesToSpecifiedModes, fromSpecifiedModesToSpecifiedModes] Default: fromSpecifiedModesToSpecifiedModes. -->
		<param name="modeSwitchBehavior" value="fromSpecifiedModesToSpecifiedModes" />
		<!-- Defines all the modes available, including chain-based modes, seperated by commas -->
		<param name="modes" value="pt,walk" />
	</module>
	<module name="controler" >
		<!-- Defines what should be done with the ITERS directory when a simulation finished successfully -->
		<param name="cleanItersAtEnd" value="keep" />
		<!-- Compression algorithm to use when writing out data to files. Possible values: [none, gzip, lz4, zst] -->
		<param name="compressionType" value="gzip" />
		<!-- Sets whether graphs showing some analyses should automatically be generated during the simulation. The generation of graphs usually takes a small amount of time that does not have any weight in big simulations, but add a significant overhead in smaller runs or in test cases where the graphical output is not even requested. -->
		<param name="createGraphs" value="true" />
		<!-- Defines when the scoring functions for the population are created. Default=IterationStarts. Possible values: [IterationStarts, BeforeMobsim] -->
		<param name="createScoringFunctionType" value="IterationStarts" />
		<!-- true if at the end of a run, plans, network, config etc should be dumped to a file -->
		<param name="dumpDataAtEnd" value="true" />
		<!-- Default=false. If enabled, the router takes travel times needed for turning moves into account. Cannot be used if the (Fast)AStarLandmarks routing or TravelTimeCalculator.separateModes is enabled. -->
		<param name="enableLinkToLinkRouting" value="false" />
		<!-- Default=xml; Specifies the file format for writing events. Currently supported: [xml, pb, json]
		Multiple values can be specified separated by commas (','). -->
		<param name="eventsFileFormat" value="xml" />
		<!-- Default=0. First Iteration of a simulation. -->
		<param name="firstIteration" value="0" />
		<!-- Default=1000. Last Iteration of a simulation. -->
		<param name="lastIteration" value="20" />
		<!-- Defines which mobility simulation will be used. Currently supported: qsim JDEQSim hermes 
		Depending on the chosen mobsim, you'll have to add additional config modules to configure the corresponding mobsim.
		For 'qsim', add a module 'qsim' to the config. -->
		<param name="mobsim" value="qsim" />
		<param name="outputDirectory" value="output/" />
		<!-- Possible values: failIfDirectoryExists,overwriteExistingFiles,deleteDirectoryIfExists -->
		<param name="overwriteFiles" value="deleteDirectoryIfExists" />
		<!-- The type of routing (least cost path) algorithm used, may have the values: [Dijkstra, AStarLandmarks, FastDijkstra, FastAStarLandmarks, SpeedyALT] -->
		<param name="routingAlgorithmType" value="AStarLandmarks" />
		<!-- An identifier for the current run which is used as prefix for output files and mentioned in output xml files etc. -->
		<param name="runId" value="null" />
		<!-- Comma-separated list of visualizer output file formats. `transims' and `otfvis'. -->
		<param name="snapshotFormat" value="" />
		<!-- iterationNumber % writeEventsInterval == 0 defines in which iterations events are written to a file. `0' disables events writing completely. -->
		<param name="writeEventsInterval" value="50" />
		<!-- iterationNumber % writePlansInterval == 0 defines (hopefully) in which iterations plans are written to a file. `0' disables plans writing completely.  Some plans in early iterations are always written -->
		<param name="writePlansInterval" value="50" />
		<!-- iterationNumber % writeSnapshotsInterval == 0 defines in which iterations snapshots are written to a file. `0' disables snapshots writing completely -->
		<param name="writeSnapshotsInterval" value="1" />
		<!-- iterationNumber % writeEventsInterval == 0 defines in which iterations trips CSV are written to a file. `0' disables trips writing completely. -->
		<param name="writeTripsInterval" value="50" />
	</module>
	<module name="counts" >
		<!-- Transport modes that will be respected for the counts comparison. 'car' is default, which includes also bussed from the pt simulation module. Use this parameter in combination with 'filterModes' = true! -->
		<param name="analyzedModes" value="car" />
		<!-- Specifies over how many iterations the link volumes should be averaged that are used for the counts comparison. Use 1 or 0 to only use the link volumes of a single iteration. This values cannot be larger than the value specified for writeCountsInterval -->
		<param name="averageCountsOverIterations" value="5" />
		<!-- factor by which to re-scale the simulated values.  necessary when simulation runs with something different from 100%.  needs to be adapted manually -->
		<param name="countsScaleFactor" value="1.0" />
		<!-- distance to distanceFilterCenterNode to include counting stations. The unit of distance is the Euclidean distance implied by the coordinate system -->
		<param name="distanceFilter" value="null" />
		<!-- node id for center node of distance filter -->
		<param name="distanceFilterCenterNode" value="null" />
		<!-- If true, link counts from legs performed on modes not included in the 'analyzedModes' parameter are ignored. -->
		<param name="filterModes" value="false" />
		<!-- The Coordinates Reference System in which the coordinates are expressed in the input file. At import, the coordinates will be converted to the coordinate system defined in "global", and willbe converted back at export. If not specified, no conversion happens. -->
		<param name="inputCRS" value="null" />
		<!-- input file name to counts package -->
		<param name="inputCountsFile" value="null" />
		<!-- possible values: `html', `txt', `all' -->
		<param name="outputformat" value="txt" />
		<!-- Specifies how often the counts comparison should be calculated and written. -->
		<param name="writeCountsInterval" value="10" />
	</module>
	<module name="facilities" >
		<!-- This defines how facilities should be created. Possible values: none fromFile setInScenario onePerActivityLinkInPlansFile onePerActivityLinkInPlansFileExceptWhenCoordinatesAreGiven onePerActivityLocationInPlansFile  -->
		<param name="facilitiesSource" value="none" />
		<!-- A prefix to be used for auto-generated IDs. -->
		<param name="idPrefix" value="f_auto_" />
		<!-- The Coordinates Reference System in which the coordinates are expressed in the input file. At import, the coordinates will be converted to the coordinate system defined in "global", and willbe converted back at export. If not specified, no conversion happens. -->
		<param name="inputCRS" value="null" />
		<param name="inputFacilitiesFile" value="null" />
		<param name="inputFacilityAttributesFile" value="null" />
		<param name="insistingOnUsingDeprecatedFacilitiesAttributeFile" value="false" />
	</module>
	<module name="global" >
		<param name="coordinateSystem" value="Atlantis" />
		<param name="defaultDelimiter" value=";" />
		<param name="insistingOnDeprecatedConfigVersion" value="true" />
		<!-- "global" number of threads.  This number is used, e.g., for replanning, but NOT in QSim.  This can typically be set to as many cores as you have available, or possibly even slightly more. -->
		<param name="numberOfThreads" value="2" />
		<param name="randomSeed" value="4711" />
	</module>
	<module name="hermes" >
		<!-- Simulation End Time -->
		<param name="endTime" value="30:00:00" />
		<param name="flowCapacityFactor" value="1.0" />
		<param name="mainMode" value="car" />
		<param name="storageCapacityFactor" value="1.0" />
		<!-- time in seconds.  Time after which the frontmost vehicle on a link is called `stuck' if it does not move. Set to Integer.MAX_VALUE to disable this behavior -->
		<param name="stuckTime" value="10" />
		<!-- treats PT as deterministic. PT vehicles will run with a steady speed. Should be used with separate network layers for PT and other network modes. -->
		<param name="useDeterministicPt" value="false" />
	</module>
	<module name="households" >
		<param name="inputFile" value="null" />
		<param name="inputHouseholdAttributesFile" value="null" />
		<param name="insistingOnUsingDeprecatedHouseholdsAttributeFile" value="false" />
	</module>
	<module name="linkStats" >
		<!-- Specifies over how many iterations the link volumes should be averaged that are used for the link statistics. Use 1 or 0 to only use the link volumes of a single iteration. This values cannot be larger than the value specified for writeLinkStatsInterval -->
		<param name="averageLinkStatsOverIterations" value="5" />
		<!-- Specifies how often the link stats should be calculated and written. Use 0 to disable the generation of link stats. -->
		<param name="writeLinkStatsInterval" value="50" />
	</module>
	<module name="network" >
		<!-- The Coordinates Reference System in which the coordinates are expressed in the input file. At import, the coordinates will be converted to the coordinate system defined in "global", and willbe converted back at export. If not specified, no conversion happens. -->
		<param name="inputCRS" value="null" />
		<param name="inputChangeEventsFile" value="null" />
		<param name="inputNetworkFile" value="PT-SE-network.xml" />
		<param name="laneDefinitionsFile" value="null" />
		<param name="timeVariantNetwork" value="false" />
	</module>
	<module name="parallelEventHandling" >
		<!-- Estimated number of events during mobsim run. An optional optimization hint for the framework. -->
		<param name="estimatedNumberOfEvents" value="null" />
		<!-- Size of the events Queue. Increase for very large scenarios -->
		<param name="eventsQueueSize" value="131072" />
		<!-- Number of threads for parallel events handler. _null_ means the framework decides by itself. 0 is currently not possible. -->
		<param name="numberOfThreads" value="null" />
		<!-- If enabled, each event handler is assigned to its own thread. Note that enabling this feature disabled the numberOfThreads option! This feature is still experimental! -->
		<param name="oneThreadPerHandler" value="false" />
		<!-- If enabled, it is ensured that all events that are created during a time step of the mobility simulation are processed before the next time step is simulated. E.g. neccessary when within-day replanning is used. -->
		<param name="synchronizeOnSimSteps" value="true" />
	</module>
	<module name="planCalcScore" >
		<!-- logit model scale parameter. default: 1.  Has name and default value for historical reasons (see Bryan Raney's phd thesis). -->
		<param name="BrainExpBeta" value="2.0" />
		<param name="PathSizeLogitBeta" value="1.0" />
		<!-- fraction of iterations at which MSA score averaging is started. The matsim theory department suggests to use this together with switching off choice set innovation (where a similar switch exists), but it has not been tested yet. -->
		<param name="fractionOfIterationsToStartScoreMSA" value="null" />
		<!-- new_score = (1-learningRate)*old_score + learningRate * score_from_mobsim.  learning rates close to zero emulate score averaging, but slow down initial convergence -->
		<param name="learningRate" value="1.0" />
		<!-- There used to be a plateau between duration=0 and duration=zeroUtilityDuration. This caused durations to evolve to zero once they were below zeroUtilityDuration, causing problems.  Only use this switch if you need to be backwards compatible with some old results.  (changed nov'13) -->
		<param name="usingOldScoringBelowZeroUtilityDuration" value="false" />
		<!-- write a plans file in each iteration directory which contains what each agent actually did, and the score it received. -->
		<param name="writeExperiencedPlans" value="false" />
		<parameterset type="scoringParameters" >
			<param name="earlyDeparture" value="-0.0" />
			<param name="lateArrival" value="-18.0" />
			<param name="marginalUtilityOfMoney" value="1.0" />
			<param name="performing" value="6.0" />
			<param name="subpopulation" value="null" />
			<param name="utilityOfLineSwitch" value="-1.0" />
			<param name="waiting" value="-0.0" />
			<param name="waitingPt" value="-6.0" />
			<parameterset type="activityParams" >
				<param name="activityType" value="h" />
				<param name="closingTime" value="undefined" />
				<param name="earliestEndTime" value="undefined" />
				<param name="latestStartTime" value="undefined" />
				<param name="minimalDuration" value="08:00:00" />
				<param name="openingTime" value="undefined" />
				<param name="priority" value="1.0" />
				<param name="scoringThisActivityAtAll" value="true" />
				<!-- typical duration of activity.  needs to be defined and non-zero.  in sec. -->
				<param name="typicalDuration" value="12:00:00" />
				<!-- method to compute score at typical duration.  Options: | uniform | relative | Use uniform for backwards compatibility (all activities same score; higher proba to drop long acts). -->
				<param name="typicalDurationScoreComputation" value="relative" />
			</parameterset>
			<parameterset type="activityParams" >
				<param name="activityType" value="w" />
				<param name="closingTime" value="18:00:00" />
				<param name="earliestEndTime" value="undefined" />
				<param name="latestStartTime" value="09:00:00" />
				<param name="minimalDuration" value="06:00:00" />
				<param name="openingTime" value="07:00:00" />
				<param name="priority" value="1.0" />
				<param name="scoringThisActivityAtAll" value="true" />
				<param name="typicalDuration" value="08:00:00" />
				<param name="typicalDurationScoreComputation" value="relative" />
			</parameterset>
			<parameterset type="activityParams" >
				<param name="activityType" value="s" />
				<param name="closingTime" value="20:00:00" />
				<param name="earliestEndTime" value="undefined" />
				<param name="latestStartTime" value="undefined" />
				<param name="minimalDuration" value="00:10:00" />
				<param name="openingTime" value="08:00:00" />
				<param name="priority" value="1.0" />
				<param name="scoringThisActivityAtAll" value="true" />
				<param name="typicalDuration" value="00:40:00" />
				<param name="typicalDurationScoreComputation" value="relative" />
			</parameterset>
			<parameterset type="activityParams" >
				<param name="activityType" value="car interaction" />
				<param name="closingTime" value="undefined" />
				<param name="earliestEndTime" value="undefined" />
				<param name="latestStartTime" value="undefined" />
				<param name="minimalDuration" value="undefined" />
				<param name="openingTime" value="undefined" />
				<param name="priority" value="1.0" />
				<param name="scoringThisActivityAtAll" value="false" />
				<param name="typicalDuration" value="undefined" />
				<param name="typicalDurationScoreComputation" value="relative" />
			</parameterset>
			<parameterset type="activityParams" >
				<param name="activityType" value="pt interaction" />
				<param name="closingTime" value="undefined" />
				<param name="earliestEndTime" value="undefined" />
				<param name="latestStartTime" value="undefined" />
				<param name="minimalDuration" value="undefined" />
				<param name="openingTime" value="undefined" />
				<param name="priority" value="1.0" />
				<param name="scoringThisActivityAtAll" value="false" />
				<param name="typicalDuration" value="undefined" />
				<param name="typicalDurationScoreComputation" value="relative" />
			</parameterset>
			<parameterset type="activityParams" >
				<param name="activityType" value="walk interaction" />
				<param name="closingTime" value="undefined" />
				<param name="earliestEndTime" value="undefined" />
				<param name="latestStartTime" value="undefined" />
				<param name="minimalDuration" value="undefined" />
				<param name="openingTime" value="undefined" />
				<param name="priority" value="1.0" />
				<param name="scoringThisActivityAtAll" value="false" />
				<param name="typicalDuration" value="undefined" />
				<param name="typicalDurationScoreComputation" value="relative" />
			</parameterset>
			<parameterset type="modeParams" >
				<!-- [utils] alternative-specific constant.  Normally per trip, but that is probably buggy for multi-leg trips. -->
				<param name="constant" value="0.0" />
				<!-- [unit_of_money/day] Fixed cost of mode, per day. -->
				<param name="dailyMonetaryConstant" value="0.0" />
				<!-- [utils] daily utility constant. default=0 to be backwards compatible -->
				<param name="dailyUtilityConstant" value="0.0" />
				<!-- [utils/m] utility of traveling (e.g. walking or driving) per m, normally negative.  this is on top of the time (dis)utility. -->
				<param name="marginalUtilityOfDistance_util_m" value="0.0" />
				<!-- [utils/hr] additional marginal utility of traveling.  normally negative.  this comes on top of the opportunity cost of time -->
				<param name="marginalUtilityOfTraveling_util_hr" value="-6.0" />
				<param name="mode" value="car" />
				<!-- [unit_of_money/m] conversion of distance into money. Normally negative. -->
				<param name="monetaryDistanceRate" value="0.0" />
			</parameterset>
			<parameterset type="modeParams" >
				<param name="constant" value="0.0" />
				<param name="dailyMonetaryConstant" value="0.0" />
				<param name="dailyUtilityConstant" value="0.0" />
				<param name="marginalUtilityOfDistance_util_m" value="0.0" />
				<param name="marginalUtilityOfTraveling_util_hr" value="-6.0" />
				<param name="mode" value="pt" />
				<param name="monetaryDistanceRate" value="0.0" />
			</parameterset>
			<parameterset type="modeParams" >
				<param name="constant" value="0.0" />
				<param name="dailyMonetaryConstant" value="0.0" />
				<param name="dailyUtilityConstant" value="0.0" />
				<param name="marginalUtilityOfDistance_util_m" value="0.0" />
				<param name="marginalUtilityOfTraveling_util_hr" value="-6.0" />
				<param name="mode" value="walk" />
				<param name="monetaryDistanceRate" value="0.0" />
			</parameterset>
		</parameterset>
	</module>
	<module name="plans" >
		<!-- String: minOfDurationAndEndTime tryEndTimeThenDuration endTimeOnly. Anything besides minOfDurationAndEndTime will internally use a different (simpler) version of the TimeAllocationMutator. -->
		<param name="activityDurationInterpretation" value="tryEndTimeThenDuration" />
		<!-- Possible values: reject,useMainModeIdentifier -->
		<param name="handlingOfPlansWithoutRoutingMode" value="reject" />
		<!-- The Coordinates Reference System in which the coordinates are expressed in the input file. At import, the coordinates will be converted to the coordinate system defined in "global", and willbe converted back at export. If not specified, no conversion happens. -->
		<param name="inputCRS" value="null" />
		<param name="inputPersonAttributesFile" value="null" />
		<param name="inputPlansFile" value="0.plans.xml" />
		<param name="insistingOnUsingDeprecatedPersonAttributeFile" value="false" />
		<!-- Defines how routes are stored in memory. Currently supported: LinkNetworkRoute, CompressedNetworkRoute. -->
		<param name="networkRouteType" value="LinkNetworkRoute" />
		<!-- (not tested) will remove plan attributes that are presumably not used, such as activityStartTime. default=false. Use with Caution! -->
		<param name="removingUnnecessaryPlanAttributes" value="false" />
		<!-- Defines how departure times are interpreted in rerouting applications. If set to 'ignoreDelays', the departure time of a trip when routing along a plan will always be the nominal (plan-based) activity end time. If set to 'shiftActivityEndTimes', routing along a plan will accumulate travel times and shift activity end times if necessary -->
		<param name="tripDurationHandling" value="ignoreDelays" />
	</module>
	<module name="planscalcroute" >
		<!-- Defines how access and egress to main mode is simulated. Either of [none, accessEgressModeToLink, walkConstantTimeToLink, accessEgressModeToLinkPlusTimeConstant], Current default=none which means no access or egress trips are simulated. -->
		<param name="accessEgressType" value="none" />
		<!-- Some typical teleportation routing params are set by default, such as for walk and bike.  Setting this switch to "true" will clear them.  Note that this will also clear settings for helper modes such as for non_network_walk -->
		<param name="clearDefaultTeleportedModeParams" value="false" />
		<!-- All the modes for which the router is supposed to generate network routes (like car) -->
		<param name="networkModes" value="car" />
		<!-- strength of the randomness for the utility of money in routing under toll.  Leads to Pareto-optimal route with randomly drawn money-vs-other-attributes tradeoff. Technically the width parameter of a log-normal distribution. 3.0 seems to be a good value.  -->
		<param name="routingRandomness" value="3.0" />
		<parameterset type="teleportedModeParameters" >
			<param name="beelineDistanceFactor" value="1.3" />
			<param name="mode" value="bike" />
			<!-- Free-speed factor for a teleported mode. Travel time = teleportedModeFreespeedFactor * <freespeed car travel time>. Insert a line like this for every such mode. Please do not set teleportedModeFreespeedFactor as well as teleportedModeSpeed for the same mode, but if you do, +teleportedModeFreespeedFactor wins over teleportedModeSpeed. -->
			<param name="teleportedModeFreespeedFactor" value="null" />
			<!-- Speed for a teleported mode. Travel time = (<beeline distance> * beelineDistanceFactor) / teleportedModeSpeed. Insert a line like this for every such mode. -->
			<param name="teleportedModeSpeed" value="4.166666666666667" />
		</parameterset>
		<parameterset type="teleportedModeParameters" >
			<param name="beelineDistanceFactor" value="1.3" />
			<param name="mode" value="walk" />
			<param name="teleportedModeFreespeedFactor" value="null" />
			<param name="teleportedModeSpeed" value="0.8333333333333333" />
		</parameterset>
		<parameterset type="teleportedModeParameters" >
			<param name="beelineDistanceFactor" value="1.3" />
			<param name="mode" value="non_network_walk" />
			<param name="teleportedModeFreespeedFactor" value="null" />
			<param name="teleportedModeSpeed" value="0.8333333333333333" />
		</parameterset>
		<parameterset type="teleportedModeParameters" >
			<param name="beelineDistanceFactor" value="1.3" />
			<param name="mode" value="ride" />
			<param name="teleportedModeFreespeedFactor" value="1.0" />
			<param name="teleportedModeSpeed" value="null" />
		</parameterset>
		<parameterset type="teleportedModeParameters" >
			<param name="beelineDistanceFactor" value="1.3" />
			<param name="mode" value="pt" />
			<param name="teleportedModeFreespeedFactor" value="2.0" />
			<param name="teleportedModeSpeed" value="null" />
		</parameterset>
	</module>
	<module name="ptCounts" >
		<!-- factor by which to re-scale the simulated values.  necessary when simulation runs with something different from 100%.  needs to be adapted manually -->
		<param name="countsScaleFactor" value="1.0" />
		<!-- distance to distanceFilterCenterNode to include counting stations. The unit of distance is the Euclidean distance implied by the coordinate system -->
		<param name="distanceFilter" value="null" />
		<!-- node id for center node of distance filter -->
		<param name="distanceFilterCenterNode" value="null" />
		<!-- input file containing the alighting (getting off) counts for pt -->
		<param name="inputAlightCountsFile" value="null" />
		<!-- input file containing the boarding (getting on) counts for pt -->
		<param name="inputBoardCountsFile" value="null" />
		<!-- input file containing the occupancy counts for pt -->
		<param name="inputOccupancyCountsFile" value="null" />
		<!-- possible values: `html', `txt', `all' -->
		<param name="outputformat" value="null" />
		<!-- every how many iterations (starting with 0) counts comparisons are generated -->
		<param name="ptCountsInterval" value="10" />
	</module>
	<module name="qsim" >
		<param name="endTime" value="30:00:00" />
		<!-- If set to withLinkAttributes snapshots will only be generated for links which include generateSnapshotForLink as attribute key. Default is no filtering. -->
		<param name="filterSnapshots" value="no" />
		<param name="flowCapacityFactor" value="1.0" />
		<!-- decides if waiting vehicles enter the network after or before the already driving vehicles were moved. Default: false -->
		<param name="insertingWaitingVehiclesBeforeDrivingVehicles" value="true" />
		<!-- If link dynamics is set as SeepageQ, set to false if all seep modes should perform seepage. Default is true (better option). -->
		<param name="isRestrictingSeepage" value="true" />
		<!-- If link dynamics is set as SeepageQ, set to true if seep mode do not consumes any space on the link. Default is false. -->
		<param name="isSeepModeStorageFree" value="false" />
		<!-- default: FIFO; options: FIFO PassingQ SeepageQ -->
		<param name="linkDynamics" value="FIFO" />
		<!-- The (initial) width of the links of the network. Use positive floating point values. This is used only for visualisation. -->
		<param name="linkWidth" value="30.0" />
		<!-- [comma-separated list] Defines which modes are congested modes. Technically, these are the modes that the departure handler of the netsimengine handles.  Effective cell size, effective lane width, flow capacity factor, and storage capacity factor need to be set with diligence.  Need to be vehicular modes to make sense. -->
		<param name="mainMode" value="car" />
		<!-- Shortens a link in the visualization, i.e. its start and end point are moved into towards the center. Does not affect traffic flow.  -->
		<param name="nodeOffset" value="0.0" />
		<!-- Number of threads used for the QSim.  Note that this setting is independent from the "global" threads setting.  In contrast to earlier versions, the non-parallel special version is no longer there. -->
		<param name="numberOfThreads" value="1" />
		<!-- Boolean. `true': stuck vehicles are removed, aborting the plan; `false': stuck vehicles are forced into the next link. `false' is probably the better choice. -->
		<param name="removeStuckVehicles" value="false" />
		<!-- If link dynamics is set as SeepageQ, set a seep mode. Default is bike. -->
		<param name="seepMode" value="bike" />
		<!-- Possible values: minOfEndtimeAndMobsimFinished,onlyUseEndtime -->
		<param name="simEndtimeInterpretation" value="null" />
		<!-- Options: maxOfStarttimeAndEarliestActivityEnd onlyUseStarttime  -->
		<param name="simStarttimeInterpretation" value="maxOfStarttimeAndEarliestActivityEnd" />
		<!-- snapshotStyle. One of: equiDist queue withHoles withHolesAndShowHoles kinematicWaves  -->
		<param name="snapshotStyle" value="equiDist" />
		<param name="snapshotperiod" value="00:00:00" />
		<param name="startTime" value="00:00:00" />
		<param name="storageCapacityFactor" value="1.0" />
		<!-- time in seconds.  Time after which the frontmost vehicle on a link is called `stuck' if it does not move. -->
		<param name="stuckTime" value="10.0" />
		<param name="timeStepSize" value="00:00:01" />
		<!-- options: queue withHoles kinematicWaves  -->
		<param name="trafficDynamics" value="queue" />
		<!-- Set this parameter to true if lanes should be used, false if not. -->
		<param name="useLanes" value="false" />
		<!-- If a route does not reference a vehicle, agents will use the vehicle with the same id as their own. -->
		<param name="usePersonIdForMissingVehicleId" value="true" />
		<!-- If false, the qsim accumulates fractional flows up to one flow unit in every time step.  If true, flows are updated only if an agent wants to enter the link or an agent is added to buffer. Default is true. -->
		<param name="usingFastCapacityUpdate" value="true" />
		<!-- Defines what happens if an agent wants to depart, but the specified vehicle is not available. One of: teleport wait exception  -->
		<param name="vehicleBehavior" value="teleport" />
		<!-- If vehicles should all be the same default vehicle, or come from the vehicles file, or something else.  Possible values:  defaultVehicle modeVehicleTypesFromVehiclesData fromVehiclesData -->
		<param name="vehiclesSource" value="defaultVehicle" />
	</module>
	<module name="strategy" >
		<!-- the external executable will be called with a config file as argument.  This is the pathname to a possible skeleton config, to which additional information will be added.  Can be null. -->
		<param name="ExternalExeConfigTemplate" value="null" />
		<!-- time out value (in seconds) after which matsim will consider the external strategy as failed -->
		<param name="ExternalExeTimeOut" value="3600" />
		<!-- root directory for temporary files generated by the external executable. Provided as a service; I don't think this is used by MATSim. -->
		<param name="ExternalExeTmpFileRootDir" value="null" />
		<!-- fraction of iterations where innovative strategies are switched off.  Something like 0.8 should be good.  E.g. if you run from iteration 400 to iteration 500, innovation is switched off at iteration 480 -->
		<param name="fractionOfIterationsToDisableInnovation" value="Infinity" />
		<!-- maximum number of plans per agent.  ``0'' means ``infinity''.  Currently (2010), ``5'' is a good number -->
		<param name="maxAgentPlanMemorySize" value="5" />
		<!-- strategyName of PlanSelector for plans removal.  Possible defaults: WorstPlanSelector SelectRandom SelectExpBetaForRemoval ChangeExpBetaForRemoval PathSizeLogitSelectorForRemoval . The current default, WorstPlanSelector is not a good choice from a discrete choice theoretical perspective. Alternatives, however, have not been systematically tested. kai, feb'12 -->
		<param name="planSelectorForRemoval" value="WorstPlanSelector" />
		<parameterset type="strategysettings" >
			<!-- iteration after which strategy will be disabled.  most useful for ``innovative'' strategies (new routes, new times, ...). Normally, better use fractionOfIterationsToDisableInnovation -->
			<param name="disableAfterIteration" value="-1" />
			<!-- path to external executable (if applicable) -->
			<param name="executionPath" value="null" />
			<!-- strategyName of strategy.  Possible default names: SelectRandom BestScore KeepLastSelected ChangeExpBeta SelectExpBeta SelectPathSizeLogit      (selectors), ReRouteTimeAllocationMutatorTimeAllocationMutator_ReRouteChangeSingleTripModeChangeTripModeSubtourModeChoice (innovative strategies). -->
			<param name="strategyName" value="BestScore" />
			<!-- subpopulation to which the strategy applies. "null" refers to the default population, that is, the set of persons for which no explicit subpopulation is defined (ie no subpopulation attribute) -->
			<param name="subpopulation" value="null" />
			<!-- weight of a strategy: for each agent, a strategy will be selected with a probability proportional to its weight -->
			<param name="weight" value="0.7" />
		</parameterset>
		<parameterset type="strategysettings" >
			<param name="disableAfterIteration" value="-1" />
			<param name="executionPath" value="null" />
			<param name="strategyName" value="ReRoute" />
			<param name="subpopulation" value="null" />
			<param name="weight" value="0.1" />
		</parameterset>
		<parameterset type="strategysettings" >
			<param name="disableAfterIteration" value="-1" />
			<param name="executionPath" value="null" />
			<param name="strategyName" value="TimeAllocationMutator" />
			<param name="subpopulation" value="null" />
			<param name="weight" value="0.1" />
		</parameterset>
		<parameterset type="strategysettings" >
			<param name="disableAfterIteration" value="-1" />
			<param name="executionPath" value="null" />
			<param name="strategyName" value="ChangeTripMode" />
			<param name="subpopulation" value="null" />
			<param name="weight" value="0.1" />
		</parameterset>
	</module>
	<module name="subtourModeChoice" >
		<!-- Only for backwards compatibility.  Defines if only trips from modes list should change mode, or all trips.  Options: fromAllModesToSpecifiedModes fromSpecifiedModesToSpecifiedModes betweenAllAndFewerConstraints  -->
		<param name="behavior" value="fromSpecifiedModesToSpecifiedModes" />
		<!-- Defines the chain-based modes, seperated by commas -->
		<param name="chainBasedModes" value="car,bike" />
		<!-- Defines whether car availability must be considered or not. A agent has no car only if it has no license, or never access to a car -->
		<param name="considerCarAvailability" value="false" />
		<!-- If greater than 0, subtours will also consider coordinates to be at the same location when smaller than set distance. -->
		<param name="coordDistance" value="0.0" />
		<!-- Defines all the modes available, including chain-based modes, seperated by commas -->
		<param name="modes" value="car,pt,bike,walk" />
		<!-- Defines the probability of changing a single trip for a unchained mode instead of subtour. -->
		<param name="probaForRandomSingleTripMode" value="0.0" />
	</module>
	<module name="transit" >
		<!-- The Coordinates Reference System in which the coordinates are expressed in the input file. At import, the coordinates will be converted to the coordinate system defined in "global", and willbe converted back at export. If not specified, no conversion happens. -->
		<param name="inputScheduleCRS" value="null" />
		<param name="insistingOnUsingDeprecatedAttributeFiles" value="false" />
		<!-- The type of transit routing algorithm used, may have the values: [DijkstraBased, SwissRailRaptor] -->
		<param name="routingAlgorithmType" value="DijkstraBased" />
		<!-- Optional input file containing additional attributes for transit lines, stored as ObjectAttributes. -->
		<param name="transitLinesAttributesFile" value="null" />
		<!-- Comma-separated list of transportation modes that are handled as transit. Defaults to 'pt'. -->
		<param name="transitModes" value="pt" />
		<!-- Input file containing the transit schedule to be simulated. -->
		<param name="transitScheduleFile" value="PT-SE-transitSchedule.xml" />
		<!-- Optional input file containing additional attributes for transit stop facilities, stored as ObjectAttributes. -->
		<param name="transitStopsAttributesFile" value="null" />
		<!-- Set this parameter to true if transit should be simulated, false if not. -->
		<param name="useTransit" value="true" />
		<param name="usingTransitInMobsim" value="true" />
		<!-- Input file containing the vehicles used by the departures in the transit schedule. -->
		<param name="vehiclesFile" value="PT-SE-transitVehicles.xml" />
	</module>
	<module name="transitRouter" >
		<!-- additional time the router allocates when a line switch happens. Can be interpreted as a 'safety' time that agents need to safely transfer from one line to another -->
		<param name="additionalTransferTime" value="0.0" />
		<!-- Factor with which direct walk generalized cost is multiplied before it is compared to the pt generalized cost.  Set to a very high value to reduce direct walk results. -->
		<param name="directWalkFactor" value="1.0" />
		<!-- step size to increase searchRadius if no stops are found -->
		<param name="extensionRadius" value="200.0" />
		<!-- maximum beeline distance between stops that agents could transfer to by walking -->
		<param name="maxBeelineWalkConnectionDistance" value="100.0" />
		<!-- the radius in which stop locations are searched, given a start or target coordinate -->
		<param name="searchRadius" value="1000.0" />
	</module>
	<module name="travelTimeCalculator" >
		<!-- (only for backwards compatibility; only used if separateModes==false && + filterModes==true)  Transport modes that will be respected by the travel time collector. 'car' is default which includes also buses from the pt simulation module. -->
		<param name="analyzedModes" value="car" />
		<param name="calculateLinkToLinkTravelTimes" value="false" />
		<param name="calculateLinkTravelTimes" value="true" />
		<!-- (only for backwards compatiblity; only used if separateModes==false)  Only modes included in analyzedModes are included. -->
		<param name="filterModes" value="false" />
		<!-- The lenght (in sec) of the time period that is splited into time bins; an additional time bin is created to aggregate all travel times collected after maxTime -->
		<param name="maxTime" value="108000" />
		<!-- (only for backwards compatibility) If false, link travel times are measured and aggregated over all vehicles using the link. -->
		<param name="separateModes" value="true" />
		<!-- How to deal with congested time bins that have no link entry events. `optimistic' assumes free speed (too optimistic); 'experimental_LastMile' is experimental and probably too pessimistic. -->
		<param name="travelTimeAggregator" value="optimistic" />
		<!-- The size of the time bin (in sec) into which the link travel times are aggregated for the router -->
		<param name="travelTimeBinSize" value="900" />
		<!-- possible values: TravelTimeCalculatorArray TravelTimeCalculatorHashMap  -->
		<param name="travelTimeCalculator" value="TravelTimeCalculatorArray" />
		<!-- How to deal with link entry times at different positions during the time bin. Currently supported: average, linearinterpolation -->
		<param name="travelTimeGetter" value="average" />
	</module>
	<module name="vehicles" >
		<param name="vehiclesFile" value="null" />
	</module>
	<module name="vspExperimental" >
		<!-- (do not use except of you have to) There was a problem with pt interaction scoring.  Some people solved it by overwriting the parameters of the pt interaction activity type.  Doing this now throws an Exception.  If you still insist on doing this, set the following to true. -->
		<param name="isAbleToOverwritePtInteractionParams" value="false" />
		<param name="isGeneratingBoardingDeniedEvent" value="false" />
		<!-- if an approximation of the opportunity cost of time is included into the radius calculation for location choice.`true' will be faster, but it is an approximation.  Default is `true'; `false' is available for backwards compatibility. -->
		<param name="isUsingOpportunityCostOfTimeForLocationChoice" value="true" />
		<param name="logitScaleParamForPlansRemoval" value="1.0" />
		<!-- Options: | ignore | info | warn | abort | .  When violating VSP defaults, this results in nothing, logfile infos, logfile warnings, or aborts.  Members of VSP should use `abort' or talk to kai. -->
		<param name="vspDefaultsCheckingLevel" value="ignore" />
		<!-- if true then writes output_events in output directory.  default is `false'. Will only work when lastIteration is multiple of events writing interval -->
		<param name="writingOutputEvents" value="true" />
	</module>

</config>

2023-02-16T10:35:47,091  INFO ControlerUtils:85 Complete config dump done.
2023-02-16T10:35:47,091  INFO ControlerUtils:86 Checking consistency of config...
2023-02-16T10:35:47,091  INFO VspConfigConsistencyCheckerImpl:64 NOT running vsp config consistency check because vsp defaults checking level is set to IGNORE
2023-02-16T10:35:47,095  INFO ControlerUtils:88 Checking consistency of config done.
2023-02-16T10:35:47,107  INFO PrepareForSimImpl:122 Network seems to be multimodal. Create car-only network which is handed over to PersonPrepareForSim.
2023-02-16T10:35:47,109  INFO NetworkImpl:164  node # 1
2023-02-16T10:35:47,109  INFO NetworkImpl:164  node # 4
2023-02-16T10:35:47,109  INFO NetworkImpl:164  node # 16
2023-02-16T10:35:47,109  INFO NetworkImpl:164  node # 64
2023-02-16T10:35:47,109  INFO NetworkImpl:164  node # 256
2023-02-16T10:35:47,109  INFO NetworkImpl:164  node # 1024
2023-02-16T10:35:47,110  INFO NetworkImpl:164  node # 4096
2023-02-16T10:35:47,113  INFO NetworkImpl:164  node # 16384
2023-02-16T10:35:47,139  INFO NetworkImpl:160  link # 1
2023-02-16T10:35:47,139  INFO NetworkImpl:160  link # 4
2023-02-16T10:35:47,139  INFO NetworkImpl:160  link # 16
2023-02-16T10:35:47,139  INFO NetworkImpl:160  link # 64
2023-02-16T10:35:47,140  INFO NetworkImpl:160  link # 256
2023-02-16T10:35:47,142  INFO NetworkImpl:160  link # 1024
2023-02-16T10:35:47,149  INFO NetworkImpl:160  link # 4096
2023-02-16T10:35:47,223  INFO NetworkImpl:160  link # 16384
2023-02-16T10:35:47,259  WARN PrepareForSimImpl:229 'usePersonIdForMissingVehicleId' is deprecated. It will be removed soon.
2023-02-16T10:35:47,259  INFO Counter:70 [VehiclesImpl] added vehicle # 1
2023-02-16T10:35:47,260  INFO Counter:70 [VehiclesImpl] added vehicle # 2
2023-02-16T10:35:47,260  INFO Counter:70 [VehiclesImpl] added vehicle # 4
2023-02-16T10:35:47,260  INFO Counter:70 [VehiclesImpl] added vehicle # 8
2023-02-16T10:35:47,260  INFO Counter:70 [VehiclesImpl] added vehicle # 16
2023-02-16T10:35:47,260  INFO Counter:70 [VehiclesImpl] added vehicle # 32
2023-02-16T10:35:47,260  INFO Counter:70 [VehiclesImpl] added vehicle # 64
2023-02-16T10:35:47,269  INFO EventsManagerImpl:138 adding Event-Handler: org.matsim.pt.router.TransitRouterImplFactory$$Lambda$297/0x0000000800f85cd0
2023-02-16T10:35:47,269  INFO EventsManagerImpl:144   org.matsim.pt.router.TransitScheduleChangedEventHandler
2023-02-16T10:35:47,269  INFO EventsManagerImpl:205     > org.matsim.pt.router.TransitScheduleChangedEvent
2023-02-16T10:35:47,269  INFO EventsManagerImpl:154 
2023-02-16T10:35:47,269  INFO EventsManagerImpl:138 adding Event-Handler: org.matsim.pt.router.TransitRouterImplFactory$$Lambda$297/0x0000000800f85cd0
2023-02-16T10:35:47,269  INFO EventsManagerImpl:144   org.matsim.pt.router.TransitScheduleChangedEventHandler
2023-02-16T10:35:47,269  INFO EventsManagerImpl:205     > org.matsim.pt.router.TransitScheduleChangedEvent
2023-02-16T10:35:47,269  INFO EventsManagerImpl:154 
2023-02-16T10:35:47,270  INFO TransitRouterNetwork:398 start creating transit network
2023-02-16T10:35:47,272  INFO Counter:70  node #1
2023-02-16T10:35:47,272  INFO Counter:70  node #2
2023-02-16T10:35:47,274  INFO Counter:70  link #1
2023-02-16T10:35:47,274  INFO Counter:70  link #2
2023-02-16T10:35:47,274  INFO Counter:70  node #4
2023-02-16T10:35:47,274  INFO Counter:70  link #4
2023-02-16T10:35:47,274  INFO Counter:70  node #8
2023-02-16T10:35:47,274  INFO Counter:70  link #8
2023-02-16T10:35:47,274  INFO Counter:70  node #16
2023-02-16T10:35:47,274  INFO Counter:70  link #16
2023-02-16T10:35:47,274  INFO Counter:70  node #32
2023-02-16T10:35:47,274  INFO Counter:70  link #32
2023-02-16T10:35:47,275  INFO Counter:70  node #64
2023-02-16T10:35:47,275  INFO Counter:70  link #64
2023-02-16T10:35:47,275  INFO Counter:70  node #128
2023-02-16T10:35:47,275  INFO Counter:70  link #128
2023-02-16T10:35:47,275  INFO Counter:70  node #256
2023-02-16T10:35:47,275  INFO Counter:70  link #256
2023-02-16T10:35:47,276  INFO Counter:70  node #512
2023-02-16T10:35:47,277  INFO Counter:70  link #512
2023-02-16T10:35:47,277  INFO Counter:70  node #1024
2023-02-16T10:35:47,277  INFO Counter:70  link #1024
2023-02-16T10:35:47,279  INFO Counter:70  node #2048
2023-02-16T10:35:47,279  INFO Counter:70  link #2048
2023-02-16T10:35:47,281  INFO Counter:70  node #4096
2023-02-16T10:35:47,281  INFO Counter:70  link #4096
2023-02-16T10:35:47,285  INFO Counter:70  node #8192
2023-02-16T10:35:47,285  INFO Counter:70  link #8192
2023-02-16T10:35:47,297  INFO Counter:70  node #16384
2023-02-16T10:35:47,297  INFO Counter:70  link #16384
2023-02-16T10:35:47,324  INFO Counter:70  node #32768
2023-02-16T10:35:47,325  INFO Counter:70  link #32768
2023-02-16T10:35:47,362  INFO Counter:70  node #65536
2023-02-16T10:35:47,362  INFO Counter:70  link #65536
2023-02-16T10:35:47,418  INFO Counter:70  node #131072
2023-02-16T10:35:47,420  INFO Counter:70  link #131072
2023-02-16T10:35:47,618  INFO Counter:70  node #262144
2023-02-16T10:35:47,623  INFO Counter:70  link #262144
2023-02-16T10:35:48,262  INFO TransitRouterNetwork:424 add transfer links
2023-02-16T10:35:56,393  INFO TransitRouterNetwork:440 32318476 transfer links to be added.
2023-02-16T10:35:56,426  INFO Counter:70  link #524288
2023-02-16T10:35:58,058  INFO Counter:70  link #1048576
2023-02-16T10:36:02,831  INFO Counter:70  link #2097152
2023-02-16T10:36:07,352  INFO Counter:70  link #4194304
2023-02-16T10:36:29,701  INFO Counter:70  link #8388608
2023-02-16T10:36:47,133  INFO MemoryObserver:42 used RAM: 4677 MB  free: 4682 MB  total: 9360 MB
2023-02-16T10:37:21,560  INFO Counter:70  link #16777216
2023-02-16T10:37:47,148  INFO MemoryObserver:42 used RAM: 6742 MB  free: 2761 MB  total: 9504 MB
2023-02-16T10:38:47,153  INFO MemoryObserver:42 used RAM: 8194 MB  free: 1309 MB  total: 9504 MB
2023-02-16T10:39:47,184  INFO MemoryObserver:42 used RAM: 9084 MB  free: 2915 MB  total: 12000 MB
2023-02-16T10:40:36,149  INFO TransitRouterNetwork:446 transit router network statistics:
2023-02-16T10:40:36,183  INFO TransitRouterNetwork:447  # nodes: 502350
2023-02-16T10:40:36,184  INFO TransitRouterNetwork:448  # links total:     32808767
2023-02-16T10:40:36,184  INFO TransitRouterNetwork:449  # transfer links:  32318476
2023-02-16T10:40:36,417  INFO NetworkImpl:164  node # 1
2023-02-16T10:40:36,418  INFO NetworkImpl:164  node # 4
2023-02-16T10:40:36,418  INFO NetworkImpl:164  node # 16
2023-02-16T10:40:36,418  INFO NetworkImpl:164  node # 64
2023-02-16T10:40:36,418  INFO NetworkImpl:164  node # 256
2023-02-16T10:40:36,419  INFO NetworkImpl:164  node # 1024
2023-02-16T10:40:36,420  INFO NetworkImpl:164  node # 4096
2023-02-16T10:40:36,429  INFO NetworkImpl:164  node # 16384
2023-02-16T10:40:36,473  INFO NetworkImpl:160  link # 1
2023-02-16T10:40:36,473  INFO NetworkImpl:160  link # 4
2023-02-16T10:40:36,474  INFO NetworkImpl:160  link # 16
2023-02-16T10:40:36,474  INFO NetworkImpl:160  link # 64
2023-02-16T10:40:36,475  INFO NetworkImpl:160  link # 256
2023-02-16T10:40:36,479  INFO NetworkImpl:160  link # 1024
2023-02-16T10:40:36,499  INFO NetworkImpl:160  link # 4096
2023-02-16T10:40:36,570  INFO NetworkImpl:160  link # 16384
2023-02-16T10:40:36,629  WARN RandomizingTimeDistanceTravelDisutilityFactory:113 There will be no routing randomness. The randomization of the travel disutility requires the monetary distance rate to be different than zero. Continuing anyway.
2023-02-16T10:40:36,631  WARN RandomizingTimeDistanceTravelDisutilityFactory:118 There will be no routing randomness. The randomization of the travel disutility requires the travel time cost rate to be different than zero. Continuing anyway.
2023-02-16T10:40:36,664  INFO RandomizingTimeDistanceTravelDisutilityFactory:86  sigma: 3.0; resulting normalization: 0.011108996538242306
2023-02-16T10:40:36,713 ERROR PreProcessDijkstra:100 All 1 incident nodes of node pt_020035591 are dead ends!
2023-02-16T10:40:36,714  WARN PreProcessEuclidean:60 There are links with stored length smaller than their Euclidean distance in this network. Thus, A* cannot guarantee to calculate the least-cost paths between two nodes.
2023-02-16T10:40:36,820  INFO PreProcessLandmarks:113 Putting landmarks on network...
2023-02-16T10:40:36,826  INFO LandmarkerPieSlices:97 Filling sectors...
2023-02-16T10:40:36,841  INFO LandmarkerPieSlices:108 Refining landmarks...
2023-02-16T10:40:36,842  INFO LandmarkerPieSlices:110 done
2023-02-16T10:40:36,843  INFO PreProcessLandmarks:116 done in 22 ms
2023-02-16T10:40:36,843  INFO PreProcessLandmarks:118 Initializing landmarks data
2023-02-16T10:40:36,850  INFO PreProcessLandmarks:130 Calculating distance from each node to each of the 16 landmarks using 2 threads...
2023-02-16T10:40:36,854  INFO PreProcessLandmarks:140 wait for landmarks Calculator to finish...
2023-02-16T10:40:36,867  INFO PreProcessLandmarks:164 done in 17 ms
2023-02-16T10:40:36,936 ERROR PreProcessDijkstra:100 All 2 incident nodes of node pt_40004411947A are dead ends!
2023-02-16T10:40:36,958  WARN PreProcessEuclidean:60 There are links with stored length smaller than their Euclidean distance in this network. Thus, A* cannot guarantee to calculate the least-cost paths between two nodes.
2023-02-16T10:40:36,970  INFO PreProcessLandmarks:113 Putting landmarks on network...
2023-02-16T10:40:36,987  INFO LandmarkerPieSlices:97 Filling sectors...
2023-02-16T10:40:37,058  INFO LandmarkerPieSlices:108 Refining landmarks...
2023-02-16T10:40:37,113  INFO LandmarkerPieSlices:110 done
2023-02-16T10:40:37,114  INFO PreProcessLandmarks:116 done in 144 ms
2023-02-16T10:40:37,114  INFO PreProcessLandmarks:118 Initializing landmarks data
2023-02-16T10:40:37,135  INFO PreProcessLandmarks:130 Calculating distance from each node to each of the 16 landmarks using 2 threads...
2023-02-16T10:40:37,135  INFO PreProcessLandmarks:140 wait for landmarks Calculator to finish...
2023-02-16T10:40:38,011  INFO PreProcessLandmarks:164 done in 876 ms
2023-02-16T10:40:38,038  INFO RandomizingTimeDistanceTravelDisutilityFactory:86  sigma: 3.0; resulting normalization: 0.011108996538242306
2023-02-16T10:40:46,593  INFO Counter:70 [PersonPrepareForSim] handled person # 1
2023-02-16T10:40:48,345  INFO MemoryObserver:42 used RAM: 10247 MB  free: 1752 MB  total: 12000 MB
2023-02-16T10:40:52,965  INFO Counter:70 [PersonPrepareForSim] handled person # 2
2023-02-16T10:40:59,212  INFO Counter:70 [PersonPrepareForSim] handled person # 4
2023-02-16T10:41:03,799  INFO Counter:70 [PersonPrepareForSim] handled person # 8
2023-02-16T10:41:12,508  INFO Counter:70 [PersonPrepareForSim] handled person # 16
2023-02-16T10:41:55,042  INFO MemoryObserver:42 used RAM: 7387 MB  free: 4612 MB  total: 12000 MB
2023-02-16T10:42:20,323  INFO Counter:70 [PersonPrepareForSim] handled person # 32
2023-02-16T10:42:55,054  INFO MemoryObserver:42 used RAM: 8312 MB  free: 3687 MB  total: 12000 MB
2023-02-16T10:43:22,468  INFO Counter:70 [PersonPrepareForSim] handled person # 64
2023-02-16T10:43:55,061  INFO MemoryObserver:42 used RAM: 9144 MB  free: 2855 MB  total: 12000 MB
2023-02-16T10:44:55,067  INFO MemoryObserver:42 used RAM: 11238 MB  free: 761 MB  total: 12000 MB
2023-02-16T10:45:32,783  INFO Counter:75 [PersonPrepareForSim] handled person # 114
2023-02-16T10:45:32,809  INFO AbstractController:134 ###################################################
2023-02-16T10:45:32,813  INFO AbstractController:135 ### ITERATION 0 BEGINS
2023-02-16T10:45:32,841  INFO ControlerListenerManagerImpl:146 calling notifyIterationStarts on org.matsim.analysis.LegHistogramListener
2023-02-16T10:45:32,842  INFO ControlerListenerManagerImpl:146 calling notifyIterationStarts on org.matsim.analysis.LinkStatsControlerListener
2023-02-16T10:45:32,842  INFO ControlerListenerManagerImpl:146 calling notifyIterationStarts on org.matsim.core.replanning.ReplanningContextImpl
2023-02-16T10:45:32,842  INFO ControlerListenerManagerImpl:146 calling notifyIterationStarts on org.matsim.core.scoring.ScoringFunctionsForPopulation$$Lambda$259/0x0000000800f36e98
2023-02-16T10:45:32,938  INFO ControlerListenerManagerImpl:146 calling notifyIterationStarts on org.matsim.core.scoring.ExperiencedPlansServiceImpl$1
2023-02-16T10:45:32,938  INFO ControlerListenerManagerImpl:149 [it.0] all ControlerIterationStartsListeners called.
2023-02-16T10:45:32,940  INFO ControlerListenerManagerImpl:225 calling notifyBeforeMobsim on org.matsim.core.controler.corelisteners.EventsHandlingImpl
2023-02-16T10:45:32,941  INFO EventsManagerImpl:168 resetting Event-Handlers
2023-02-16T10:45:32,941  INFO EventsManagerImpl:175   org.matsim.core.trafficmonitoring.TravelTimeCalculator
2023-02-16T10:45:32,942  INFO EventsManagerImpl:175   org.matsim.analysis.VolumesAnalyzer
2023-02-16T10:45:32,942  INFO EventsManagerImpl:175   org.matsim.core.scoring.ScoringFunctionsForPopulation
2023-02-16T10:45:32,942  INFO EventsManagerImpl:175   org.matsim.analysis.LegHistogram
2023-02-16T10:45:32,942  INFO EventsManagerImpl:175   org.matsim.analysis.CalcLegTimes
2023-02-16T10:45:32,942  INFO EventsManagerImpl:175   org.matsim.pt.router.TransitRouterImplFactory$$Lambda$297/0x0000000800f85cd0
2023-02-16T10:45:32,970  INFO EventsManagerImpl:138 adding Event-Handler: org.matsim.core.events.algorithms.EventWriterXML
2023-02-16T10:45:32,970  INFO EventsManagerImpl:144   org.matsim.core.events.algorithms.EventWriter
2023-02-16T10:45:32,970  INFO EventsManagerImpl:144   org.matsim.core.events.handler.BasicEventHandler
2023-02-16T10:45:32,970  INFO EventsManagerImpl:205     > org.matsim.api.core.v01.events.Event
2023-02-16T10:45:32,970  INFO EventsManagerImpl:154 
2023-02-16T10:45:32,970  INFO EventsManagerImpl:138 adding Event-Handler: org.matsim.core.events.algorithms.EventWriterXML
2023-02-16T10:45:32,970  INFO EventsManagerImpl:144   org.matsim.core.events.algorithms.EventWriter
2023-02-16T10:45:32,970  INFO EventsManagerImpl:144   org.matsim.core.events.handler.BasicEventHandler
2023-02-16T10:45:32,970  INFO EventsManagerImpl:205     > org.matsim.api.core.v01.events.Event
2023-02-16T10:45:32,970  INFO EventsManagerImpl:154 
2023-02-16T10:45:32,970  INFO ControlerListenerManagerImpl:225 calling notifyBeforeMobsim on org.matsim.core.controler.corelisteners.PlansDumpingImpl
2023-02-16T10:45:32,972  INFO PlansDumpingImpl:77 dumping plans...
2023-02-16T10:45:33,101  INFO Counter:70 [PopulationWriter] dumped person # 1
2023-02-16T10:45:33,113  INFO Counter:70 [PopulationWriter] dumped person # 2
2023-02-16T10:45:33,122  INFO Counter:70 [PopulationWriter] dumped person # 4
2023-02-16T10:45:33,160  INFO Counter:70 [PopulationWriter] dumped person # 8
2023-02-16T10:45:33,226  INFO Counter:70 [PopulationWriter] dumped person # 16
2023-02-16T10:45:33,311  INFO Counter:70 [PopulationWriter] dumped person # 32
2023-02-16T10:45:33,423  INFO Counter:70 [PopulationWriter] dumped person # 64
2023-02-16T10:45:33,568  INFO PopulationWriter:145 Population written to: output/ITERS/it.0/0.plans.xml.gz
2023-02-16T10:45:33,573  INFO Counter:75 [PopulationWriter] dumped person # 114
2023-02-16T10:45:33,573  INFO PlansDumpingImpl:94 finished plans dump.
2023-02-16T10:45:33,573  INFO ControlerListenerManagerImpl:230 calling notifyBeforeMobsim on org.matsim.core.population.VspPlansCleaner
2023-02-16T10:45:33,576  INFO ControlerListenerManagerImpl:233 [it.0] all ControlerBeforeMobsimListeners called.
2023-02-16T10:45:33,584  INFO PrepareForMobsimImpl:87 Network seems to be multimodal. Create car-only network which is handed over to PersonPrepareForSim.
2023-02-16T10:45:33,764  INFO NetworkImpl:164  node # 1
2023-02-16T10:45:33,764  INFO NetworkImpl:164  node # 4
2023-02-16T10:45:33,764  INFO NetworkImpl:164  node # 16
2023-02-16T10:45:33,764  INFO NetworkImpl:164  node # 64
2023-02-16T10:45:33,764  INFO NetworkImpl:164  node # 256
2023-02-16T10:45:33,764  INFO NetworkImpl:164  node # 1024
2023-02-16T10:45:33,765  INFO NetworkImpl:164  node # 4096
2023-02-16T10:45:33,766  INFO NetworkImpl:164  node # 16384
2023-02-16T10:45:33,781  INFO NetworkImpl:160  link # 1
2023-02-16T10:45:33,781  INFO NetworkImpl:160  link # 4
2023-02-16T10:45:33,781  INFO NetworkImpl:160  link # 16
2023-02-16T10:45:33,781  INFO NetworkImpl:160  link # 64
2023-02-16T10:45:33,782  INFO NetworkImpl:160  link # 256
2023-02-16T10:45:33,783  INFO NetworkImpl:160  link # 1024
2023-02-16T10:45:33,791  INFO NetworkImpl:160  link # 4096
2023-02-16T10:45:33,839  INFO NetworkImpl:160  link # 16384
2023-02-16T10:45:33,883  INFO RandomizingTimeDistanceTravelDisutilityFactory:86  sigma: 3.0; resulting normalization: 0.011108996538242306
2023-02-16T10:45:33,963  INFO RandomizingTimeDistanceTravelDisutilityFactory:86  sigma: 3.0; resulting normalization: 0.011108996538242306
2023-02-16T10:45:34,056  INFO Counter:70 [PersonPrepareForSim] handled person # 1
2023-02-16T10:45:34,056  INFO Counter:70 [PersonPrepareForSim] handled person # 2
2023-02-16T10:45:34,061  INFO Counter:70 [PersonPrepareForSim] handled person # 4
2023-02-16T10:45:34,061  INFO Counter:70 [PersonPrepareForSim] handled person # 8
2023-02-16T10:45:34,061  INFO Counter:70 [PersonPrepareForSim] handled person # 16
2023-02-16T10:45:34,062  INFO Counter:70 [PersonPrepareForSim] handled person # 32
2023-02-16T10:45:34,063  INFO Counter:70 [PersonPrepareForSim] handled person # 64
2023-02-16T10:45:34,065  INFO Counter:75 [PersonPrepareForSim] handled person # 114
2023-02-16T10:45:34,251  INFO MobsimListenerManager:50 calling addQueueSimulationListener
2023-02-16T10:45:34,252  INFO MobsimListenerManager:54   assigned class org.matsim.core.mobsim.framework.listeners.MobsimListener to interface org.matsim.core.mobsim.framework.listeners.MobsimListener
2023-02-16T10:45:34,253  INFO MobsimListenerManager:54   assigned class org.matsim.core.mobsim.framework.listeners.MobsimListener to interface org.matsim.vis.snapshotwriters.SnapshotWriterManager
2023-02-16T10:45:34,253  INFO MobsimListenerManager:54   assigned class org.matsim.core.mobsim.framework.listeners.MobsimListener to interface org.matsim.core.mobsim.framework.listeners.MobsimInitializedListener
2023-02-16T10:45:34,253  INFO MobsimListenerManager:54   assigned class org.matsim.core.mobsim.framework.listeners.MobsimListener to interface org.matsim.core.mobsim.framework.listeners.MobsimAfterSimStepListener
2023-02-16T10:45:34,253  INFO MobsimListenerManager:54   assigned class org.matsim.core.mobsim.framework.listeners.MobsimListener to interface org.matsim.core.mobsim.framework.listeners.MobsimBeforeCleanupListener
2023-02-16T10:45:34,560  WARN QueueWithBuffer:500 Link pt_0 too small: enlarge storage capacity from: 27.77777777777778 Vehicles to: 50.0 Vehicles.  This is not fatal, but modifies the traffic flow dynamics.
2023-02-16T10:45:34,570  WARN QueueWithBuffer:500 Link pt_1 too small: enlarge storage capacity from: 92.98319600437885 Vehicles to: 697.3739700328414 Vehicles.  This is not fatal, but modifies the traffic flow dynamics.
2023-02-16T10:45:34,570  WARN QueueWithBuffer:500 Link pt_10 too small: enlarge storage capacity from: 69.12797970761568 Vehicles to: 518.4598478071176 Vehicles.  This is not fatal, but modifies the traffic flow dynamics.
2023-02-16T10:45:34,570  WARN QueueWithBuffer:500 Link pt_100 too small: enlarge storage capacity from: 77.78488718103345 Vehicles to: 583.386653857751 Vehicles.  This is not fatal, but modifies the traffic flow dynamics.
2023-02-16T10:45:34,571  WARN QueueWithBuffer:500 Link pt_1000 too small: enlarge storage capacity from: 64.35386134316289 Vehicles to: 482.6539600737217 Vehicles.  This is not fatal, but modifies the traffic flow dynamics.
2023-02-16T10:45:34,571  WARN QueueWithBuffer:500 Link pt_10000 too small: enlarge storage capacity from: 61.1721716516453 Vehicles to: 458.79128738733976 Vehicles.  This is not fatal, but modifies the traffic flow dynamics.
2023-02-16T10:45:34,571  WARN QueueWithBuffer:500 Link pt_10001 too small: enlarge storage capacity from: 52.96150390746449 Vehicles to: 397.2112793059837 Vehicles.  This is not fatal, but modifies the traffic flow dynamics.
2023-02-16T10:45:34,571  WARN QueueWithBuffer:500 Link pt_10002 too small: enlarge storage capacity from: 64.18127556067836 Vehicles to: 481.35956670508773 Vehicles.  This is not fatal, but modifies the traffic flow dynamics.
2023-02-16T10:45:34,571  WARN QueueWithBuffer:500 Link pt_10003 too small: enlarge storage capacity from: 73.20946017361123 Vehicles to: 549.0709513020843 Vehicles.  This is not fatal, but modifies the traffic flow dynamics.
2023-02-16T10:45:34,571  WARN QueueWithBuffer:500 Link pt_10004 too small: enlarge storage capacity from: 50.365239570449596 Vehicles to: 377.73929677837197 Vehicles.  This is not fatal, but modifies the traffic flow dynamics.
2023-02-16T10:45:34,571  WARN QueueWithBuffer:500 Link pt_10005 too small: enlarge storage capacity from: 91.85498540511563 Vehicles to: 688.9123905383672 Vehicles.  This is not fatal, but modifies the traffic flow dynamics.
2023-02-16T10:45:34,571  WARN QueueWithBuffer:503 Additional warnings of this type are suppressed.
2023-02-16T10:45:35,145  INFO QSimProvider:123 Added MobsimEngine class org.matsim.core.mobsim.qsim.ActivityEngineDefaultImpl
2023-02-16T10:45:35,145  INFO QSimProvider:129 Added Activityhandler class org.matsim.core.mobsim.qsim.ActivityEngineDefaultImpl
2023-02-16T10:45:35,145  INFO QSimProvider:135 Added DepartureHandler class org.matsim.core.mobsim.qsim.qnetsimengine.VehicularDepartureHandler
2023-02-16T10:45:35,145  INFO QSimProvider:123 Added MobsimEngine class org.matsim.core.mobsim.qsim.qnetsimengine.QNetsimEngineWithThreadpool
2023-02-16T10:45:35,145  INFO QSimProvider:123 Added MobsimEngine class org.matsim.core.mobsim.qsim.DefaultTeleportationEngine
2023-02-16T10:45:35,145  INFO QSimProvider:135 Added DepartureHandler class org.matsim.core.mobsim.qsim.DefaultTeleportationEngine
2023-02-16T10:45:35,146  INFO QSimProvider:141 Added AgentSource class org.matsim.core.mobsim.qsim.agents.PopulationAgentSource
2023-02-16T10:45:35,146  INFO MobsimListenerManager:50 calling addQueueSimulationListener
2023-02-16T10:45:35,146  INFO MobsimListenerManager:54   assigned class org.matsim.core.mobsim.framework.listeners.MobsimListener to interface org.matsim.core.mobsim.framework.listeners.MobsimBeforeSimStepListener
2023-02-16T10:45:35,146  INFO MobsimListenerManager:54   assigned class org.matsim.core.mobsim.framework.listeners.MobsimListener to interface org.matsim.core.mobsim.framework.listeners.MobsimListener
2023-02-16T10:45:35,146  INFO MobsimListenerManager:54   assigned class org.matsim.core.mobsim.framework.listeners.MobsimListener to interface org.matsim.core.mobsim.qsim.messagequeueengine.MessageQueueEngine
2023-02-16T10:45:35,146  INFO QSimProvider:147 Added MobsimListener class org.matsim.core.mobsim.qsim.messagequeueengine.MessageQueueEngine
2023-02-16T10:45:35,149  INFO QSimProvider:123 Added MobsimEngine class org.matsim.core.mobsim.qsim.pt.TransitQSimEngine
2023-02-16T10:45:35,150  INFO QSimProvider:135 Added DepartureHandler class org.matsim.core.mobsim.qsim.pt.TransitQSimEngine
2023-02-16T10:45:35,150  INFO QSimProvider:141 Added AgentSource class org.matsim.core.mobsim.qsim.pt.TransitQSimEngine
2023-02-16T10:45:35,176  INFO PopulationUtils:1164 adding scenario element for allpersons container
2023-02-16T10:45:35,176  INFO PopulationImpl:106  person # 1
2023-02-16T10:45:35,176  INFO PopulationImpl:106  person # 4
2023-02-16T10:45:35,177  INFO PopulationImpl:106  person # 16
2023-02-16T10:45:35,180  INFO PopulationImpl:106  person # 64
2023-02-16T10:45:35,246  INFO ReconstructingUmlaufBuilder:133 Generating UmlaufStuecke ...
2023-02-16T10:45:35,276  INFO ReconstructingUmlaufBuilder:146 ... done generating UmlaufStuecke
2023-02-16T10:45:35,504  INFO VehicleUtils:329 adding scenario element for allvehicles container
2023-02-16T10:45:35,504  INFO Counter:70 [VehiclesImpl] added vehicle # 1
2023-02-16T10:45:35,504  INFO Counter:70 [VehiclesImpl] added vehicle # 2
2023-02-16T10:45:35,504  INFO Counter:70 [VehiclesImpl] added vehicle # 4
2023-02-16T10:45:35,505  INFO Counter:70 [VehiclesImpl] added vehicle # 8
2023-02-16T10:45:35,505  INFO Counter:70 [VehiclesImpl] added vehicle # 16
2023-02-16T10:45:35,506  INFO Counter:70 [VehiclesImpl] added vehicle # 32
2023-02-16T10:45:35,507  INFO Counter:70 [VehiclesImpl] added vehicle # 64
2023-02-16T10:45:35,511  INFO Counter:70 [VehiclesImpl] added vehicle # 128
2023-02-16T10:45:35,515  INFO Counter:70 [VehiclesImpl] added vehicle # 256
2023-02-16T10:45:35,523  INFO Counter:70 [VehiclesImpl] added vehicle # 512
2023-02-16T10:45:35,531  INFO Counter:70 [VehiclesImpl] added vehicle # 1024
2023-02-16T10:45:35,542  INFO Counter:70 [VehiclesImpl] added vehicle # 2048
2023-02-16T10:45:35,567  INFO Counter:70 [VehiclesImpl] added vehicle # 4096
2023-02-16T10:45:35,668  INFO AbstractQNetsimEngine:428 Assigned 37558 nodes and 71702 links to QSimEngineRunner #0
2023-02-16T10:45:35,686  INFO EventsManagerImpl:115  event # 1
2023-02-16T10:45:35,696  INFO AbstractQNetsimEngine:366 SIMULATION (QNetsimEngine) AT 00:00:00 : #links=0 #nodes=1
2023-02-16T10:45:35,701  INFO EventsManagerImpl:115  event # 4
2023-02-16T10:45:35,704  INFO QSim:566 SIMULATION (NEW QSim) AT 00:00:00 : #Veh=6359 lost=0 simT=0.0s realT=1s; (s/r): 0.0
2023-02-16T10:45:35,715  INFO EventsManagerImpl:115  event # 16
2023-02-16T10:45:35,741  INFO EventsManagerImpl:115  event # 64
2023-02-16T10:45:35,787  INFO EventsManagerImpl:115  event # 256
2023-02-16T10:45:35,872  INFO EventsManagerImpl:115  event # 1024
2023-02-16T10:45:36,040  INFO AbstractQNetsimEngine:366 SIMULATION (QNetsimEngine) AT 01:00:00 : #links=5 #nodes=13
2023-02-16T10:45:36,041  INFO QSim:566 SIMULATION (NEW QSim) AT 01:00:00 : #Veh=6355 lost=0 simT=3600.0s realT=1s; (s/r): 3600.0
2023-02-16T10:45:36,089  INFO EventsManagerImpl:115  event # 4096
2023-02-16T10:45:36,272  INFO AbstractQNetsimEngine:366 SIMULATION (QNetsimEngine) AT 02:00:00 : #links=5 #nodes=9
2023-02-16T10:45:36,272  INFO QSim:566 SIMULATION (NEW QSim) AT 02:00:00 : #Veh=6354 lost=0 simT=7200.0s realT=2s; (s/r): 3600.0
2023-02-16T10:45:36,475  INFO AbstractQNetsimEngine:366 SIMULATION (QNetsimEngine) AT 03:00:00 : #links=6 #nodes=11
2023-02-16T10:45:36,475  INFO QSim:566 SIMULATION (NEW QSim) AT 03:00:00 : #Veh=6354 lost=0 simT=10800.0s realT=2s; (s/r): 5400.0
2023-02-16T10:45:36,685  INFO AbstractQNetsimEngine:366 SIMULATION (QNetsimEngine) AT 04:00:00 : #links=5 #nodes=19
2023-02-16T10:45:36,685  INFO QSim:566 SIMULATION (NEW QSim) AT 04:00:00 : #Veh=6351 lost=0 simT=14400.0s realT=2s; (s/r): 7200.0
2023-02-16T10:45:36,773  INFO EventsManagerImpl:115  event # 16384
2023-02-16T10:45:36,873  INFO AbstractQNetsimEngine:366 SIMULATION (QNetsimEngine) AT 05:00:00 : #links=12 #nodes=47
2023-02-16T10:45:36,873  INFO QSim:566 SIMULATION (NEW QSim) AT 05:00:00 : #Veh=6349 lost=0 simT=18000.0s realT=2s; (s/r): 9000.0
2023-02-16T10:45:37,462  INFO AbstractQNetsimEngine:366 SIMULATION (QNetsimEngine) AT 06:00:00 : #links=115 #nodes=251
2023-02-16T10:45:37,463  INFO QSim:566 SIMULATION (NEW QSim) AT 06:00:00 : #Veh=6331 lost=0 simT=21600.0s realT=3s; (s/r): 7200.0
2023-02-16T10:45:37,514  INFO EventsManagerImpl:115  event # 65536
2023-02-16T10:45:38,551  INFO AbstractQNetsimEngine:366 SIMULATION (QNetsimEngine) AT 07:00:00 : #links=412 #nodes=707
2023-02-16T10:45:38,551  INFO QSim:566 SIMULATION (NEW QSim) AT 07:00:00 : #Veh=6269 lost=0 simT=25200.0s realT=4s; (s/r): 6300.0
2023-02-16T10:45:38,729  INFO EventsManagerImpl:115  event # 262144
2023-02-16T10:45:40,552  INFO AbstractQNetsimEngine:366 SIMULATION (QNetsimEngine) AT 08:00:00 : #links=889 #nodes=1098
2023-02-16T10:45:40,552  INFO QSim:566 SIMULATION (NEW QSim) AT 08:00:00 : #Veh=6104 lost=0 simT=28800.0s realT=6s; (s/r): 4800.0
2023-02-16T10:45:42,876  INFO AbstractQNetsimEngine:366 SIMULATION (QNetsimEngine) AT 09:00:00 : #links=625 #nodes=853
2023-02-16T10:45:42,877  INFO QSim:566 SIMULATION (NEW QSim) AT 09:00:00 : #Veh=5700 lost=0 simT=32400.0s realT=8s; (s/r): 4050.0
2023-02-16T10:45:43,987  INFO EventsManagerImpl:115  event # 1048576
2023-02-16T10:45:45,550  INFO AbstractQNetsimEngine:366 SIMULATION (QNetsimEngine) AT 10:00:00 : #links=634 #nodes=898
2023-02-16T10:45:45,550  INFO QSim:566 SIMULATION (NEW QSim) AT 10:00:00 : #Veh=5540 lost=0 simT=36000.0s realT=11s; (s/r): 3272.7272727272725
2023-02-16T10:45:48,606  INFO AbstractQNetsimEngine:366 SIMULATION (QNetsimEngine) AT 11:00:00 : #links=602 #nodes=883
2023-02-16T10:45:48,606  INFO QSim:566 SIMULATION (NEW QSim) AT 11:00:00 : #Veh=5389 lost=0 simT=39600.0s realT=14s; (s/r): 2828.5714285714284
2023-02-16T10:45:50,653  INFO AbstractQNetsimEngine:366 SIMULATION (QNetsimEngine) AT 12:00:00 : #links=587 #nodes=895
2023-02-16T10:45:50,653  INFO QSim:566 SIMULATION (NEW QSim) AT 12:00:00 : #Veh=5230 lost=0 simT=43200.0s realT=16s; (s/r): 2700.0
2023-02-16T10:45:52,315  INFO AbstractQNetsimEngine:366 SIMULATION (QNetsimEngine) AT 13:00:00 : #links=615 #nodes=884
2023-02-16T10:45:52,315  INFO QSim:566 SIMULATION (NEW QSim) AT 13:00:00 : #Veh=5049 lost=0 simT=46800.0s realT=18s; (s/r): 2600.0
2023-02-16T10:45:53,902  INFO AbstractQNetsimEngine:366 SIMULATION (QNetsimEngine) AT 14:00:00 : #links=587 #nodes=889
2023-02-16T10:45:53,903  INFO QSim:566 SIMULATION (NEW QSim) AT 14:00:00 : #Veh=4839 lost=0 simT=50400.0s realT=19s; (s/r): 2652.6315789473683
2023-02-16T10:45:55,080  INFO MemoryObserver:42 used RAM: 9624 MB  free: 2375 MB  total: 12000 MB
2023-02-16T10:45:55,489  INFO AbstractQNetsimEngine:366 SIMULATION (QNetsimEngine) AT 15:00:00 : #links=612 #nodes=863
2023-02-16T10:45:55,489  INFO QSim:566 SIMULATION (NEW QSim) AT 15:00:00 : #Veh=4541 lost=0 simT=54000.0s realT=21s; (s/r): 2571.4285714285716
2023-02-16T10:45:57,228  INFO AbstractQNetsimEngine:366 SIMULATION (QNetsimEngine) AT 16:00:00 : #links=802 #nodes=1008
2023-02-16T10:45:57,228  INFO QSim:566 SIMULATION (NEW QSim) AT 16:00:00 : #Veh=4016 lost=0 simT=57600.0s realT=22s; (s/r): 2618.181818181818
2023-02-16T10:45:58,978  INFO AbstractQNetsimEngine:366 SIMULATION (QNetsimEngine) AT 17:00:00 : #links=686 #nodes=859
2023-02-16T10:45:58,978  INFO QSim:566 SIMULATION (NEW QSim) AT 17:00:00 : #Veh=3337 lost=0 simT=61200.0s realT=24s; (s/r): 2550.0
2023-02-16T10:46:00,487  INFO AbstractQNetsimEngine:366 SIMULATION (QNetsimEngine) AT 18:00:00 : #links=620 #nodes=823
2023-02-16T10:46:00,487  INFO QSim:566 SIMULATION (NEW QSim) AT 18:00:00 : #Veh=2798 lost=0 simT=64800.0s realT=26s; (s/r): 2492.3076923076924
2023-02-16T10:46:01,834  INFO AbstractQNetsimEngine:366 SIMULATION (QNetsimEngine) AT 19:00:00 : #links=411 #nodes=603
2023-02-16T10:46:01,834  INFO QSim:566 SIMULATION (NEW QSim) AT 19:00:00 : #Veh=2008 lost=0 simT=68400.0s realT=27s; (s/r): 2533.3333333333335
2023-02-16T10:46:02,130  INFO EventsManagerImpl:115  event # 4194304
2023-02-16T10:46:02,738  INFO AbstractQNetsimEngine:366 SIMULATION (QNetsimEngine) AT 20:00:00 : #links=189 #nodes=358
2023-02-16T10:46:02,738  INFO QSim:566 SIMULATION (NEW QSim) AT 20:00:00 : #Veh=1316 lost=0 simT=72000.0s realT=28s; (s/r): 2571.4285714285716
2023-02-16T10:46:03,325  INFO AbstractQNetsimEngine:366 SIMULATION (QNetsimEngine) AT 21:00:00 : #links=128 #nodes=213
2023-02-16T10:46:03,326  INFO QSim:566 SIMULATION (NEW QSim) AT 21:00:00 : #Veh=958 lost=0 simT=75600.0s realT=29s; (s/r): 2606.896551724138
2023-02-16T10:46:03,759  INFO AbstractQNetsimEngine:366 SIMULATION (QNetsimEngine) AT 22:00:00 : #links=93 #nodes=172
2023-02-16T10:46:03,760  INFO QSim:566 SIMULATION (NEW QSim) AT 22:00:00 : #Veh=712 lost=0 simT=79200.0s realT=29s; (s/r): 2731.0344827586205
2023-02-16T10:46:04,135  INFO AbstractQNetsimEngine:366 SIMULATION (QNetsimEngine) AT 23:00:00 : #links=79 #nodes=129
2023-02-16T10:46:04,135  INFO QSim:566 SIMULATION (NEW QSim) AT 23:00:00 : #Veh=463 lost=0 simT=82800.0s realT=29s; (s/r): 2855.1724137931033
2023-02-16T10:46:04,451  INFO AbstractQNetsimEngine:366 SIMULATION (QNetsimEngine) AT 24:00:00 : #links=78 #nodes=14
2023-02-16T10:46:04,451  INFO QSim:566 SIMULATION (NEW QSim) AT 24:00:00 : #Veh=195 lost=0 simT=86400.0s realT=30s; (s/r): 2880.0
[...]
2023-02-16T11:04:28,113  INFO AbstractQNetsimEngine:366 SIMULATION (QNetsimEngine) AT 00:00:00 : #links=0 #nodes=1
2023-02-16T11:04:28,113  INFO QSim:566 SIMULATION (NEW QSim) AT 00:00:00 : #Veh=6359 lost=0 simT=0.0s realT=0s; (s/r): 0.0
2023-02-16T11:04:28,267  INFO AbstractQNetsimEngine:366 SIMULATION (QNetsimEngine) AT 01:00:00 : #links=5 #nodes=13
2023-02-16T11:04:28,267  INFO QSim:566 SIMULATION (NEW QSim) AT 01:00:00 : #Veh=6355 lost=0 simT=3600.0s realT=0s; (s/r): Infinity
2023-02-16T11:04:28,957  INFO AbstractQNetsimEngine:366 SIMULATION (QNetsimEngine) AT 02:00:00 : #links=5 #nodes=9
2023-02-16T11:04:28,957  INFO QSim:566 SIMULATION (NEW QSim) AT 02:00:00 : #Veh=6354 lost=0 simT=7200.0s realT=1s; (s/r): 7200.0
2023-02-16T11:04:29,133  INFO AbstractQNetsimEngine:366 SIMULATION (QNetsimEngine) AT 03:00:00 : #links=6 #nodes=11
2023-02-16T11:04:29,133  INFO QSim:566 SIMULATION (NEW QSim) AT 03:00:00 : #Veh=6354 lost=0 simT=10800.0s realT=1s; (s/r): 10800.0
2023-02-16T11:04:29,322  INFO AbstractQNetsimEngine:366 SIMULATION (QNetsimEngine) AT 04:00:00 : #links=5 #nodes=19
2023-02-16T11:04:29,322  INFO QSim:566 SIMULATION (NEW QSim) AT 04:00:00 : #Veh=6351 lost=0 simT=14400.0s realT=1s; (s/r): 14400.0
2023-02-16T11:04:29,532  INFO AbstractQNetsimEngine:366 SIMULATION (QNetsimEngine) AT 05:00:00 : #links=12 #nodes=47
2023-02-16T11:04:29,532  INFO QSim:566 SIMULATION (NEW QSim) AT 05:00:00 : #Veh=6349 lost=0 simT=18000.0s realT=1s; (s/r): 18000.0
2023-02-16T11:04:29,873  INFO AbstractQNetsimEngine:366 SIMULATION (QNetsimEngine) AT 06:00:00 : #links=115 #nodes=251
2023-02-16T11:04:29,873  INFO QSim:566 SIMULATION (NEW QSim) AT 06:00:00 : #Veh=6331 lost=0 simT=21600.0s realT=2s; (s/r): 10800.0
2023-02-16T11:04:30,718  INFO AbstractQNetsimEngine:366 SIMULATION (QNetsimEngine) AT 07:00:00 : #links=412 #nodes=707
2023-02-16T11:04:30,718  INFO QSim:566 SIMULATION (NEW QSim) AT 07:00:00 : #Veh=6269 lost=0 simT=25200.0s realT=3s; (s/r): 8400.0
2023-02-16T11:04:32,398  INFO AbstractQNetsimEngine:366 SIMULATION (QNetsimEngine) AT 08:00:00 : #links=890 #nodes=1097
2023-02-16T11:04:32,398  INFO QSim:566 SIMULATION (NEW QSim) AT 08:00:00 : #Veh=6104 lost=0 simT=28800.0s realT=4s; (s/r): 7200.0
2023-02-16T11:04:34,237  INFO AbstractQNetsimEngine:366 SIMULATION (QNetsimEngine) AT 09:00:00 : #links=624 #nodes=854
2023-02-16T11:04:34,237  INFO QSim:566 SIMULATION (NEW QSim) AT 09:00:00 : #Veh=5700 lost=0 simT=32400.0s realT=6s; (s/r): 5400.0
2023-02-16T11:04:35,950  INFO AbstractQNetsimEngine:366 SIMULATION (QNetsimEngine) AT 10:00:00 : #links=633 #nodes=898
2023-02-16T11:04:35,950  INFO QSim:566 SIMULATION (NEW QSim) AT 10:00:00 : #Veh=5540 lost=0 simT=36000.0s realT=8s; (s/r): 4500.0
2023-02-16T11:04:37,691  INFO AbstractQNetsimEngine:366 SIMULATION (QNetsimEngine) AT 11:00:00 : #links=600 #nodes=885
2023-02-16T11:04:37,691  INFO QSim:566 SIMULATION (NEW QSim) AT 11:00:00 : #Veh=5389 lost=0 simT=39600.0s realT=10s; (s/r): 3960.0
2023-02-16T11:04:39,293  INFO AbstractQNetsimEngine:366 SIMULATION (QNetsimEngine) AT 12:00:00 : #links=583 #nodes=899
2023-02-16T11:04:39,293  INFO QSim:566 SIMULATION (NEW QSim) AT 12:00:00 : #Veh=5230 lost=0 simT=43200.0s realT=11s; (s/r): 3927.2727272727275
2023-02-16T11:04:40,847  INFO AbstractQNetsimEngine:366 SIMULATION (QNetsimEngine) AT 13:00:00 : #links=614 #nodes=885
2023-02-16T11:04:40,847  INFO QSim:566 SIMULATION (NEW QSim) AT 13:00:00 : #Veh=5049 lost=0 simT=46800.0s realT=13s; (s/r): 3600.0
2023-02-16T11:04:42,457  INFO AbstractQNetsimEngine:366 SIMULATION (QNetsimEngine) AT 14:00:00 : #links=585 #nodes=891
2023-02-16T11:04:42,457  INFO QSim:566 SIMULATION (NEW QSim) AT 14:00:00 : #Veh=4839 lost=0 simT=50400.0s realT=14s; (s/r): 3600.0
2023-02-16T11:04:44,039  INFO AbstractQNetsimEngine:366 SIMULATION (QNetsimEngine) AT 15:00:00 : #links=612 #nodes=863
2023-02-16T11:04:44,039  INFO QSim:566 SIMULATION (NEW QSim) AT 15:00:00 : #Veh=4541 lost=0 simT=54000.0s realT=16s; (s/r): 3375.0
2023-02-16T11:04:45,780  INFO AbstractQNetsimEngine:366 SIMULATION (QNetsimEngine) AT 16:00:00 : #links=800 #nodes=1010
2023-02-16T11:04:45,780  INFO QSim:566 SIMULATION (NEW QSim) AT 16:00:00 : #Veh=4016 lost=0 simT=57600.0s realT=18s; (s/r): 3200.0
2023-02-16T11:04:47,544  INFO AbstractQNetsimEngine:366 SIMULATION (QNetsimEngine) AT 17:00:00 : #links=686 #nodes=859
2023-02-16T11:04:47,544  INFO QSim:566 SIMULATION (NEW QSim) AT 17:00:00 : #Veh=3337 lost=0 simT=61200.0s realT=19s; (s/r): 3221.0526315789475
2023-02-16T11:04:49,044  INFO AbstractQNetsimEngine:366 SIMULATION (QNetsimEngine) AT 18:00:00 : #links=620 #nodes=823
2023-02-16T11:04:49,044  INFO QSim:566 SIMULATION (NEW QSim) AT 18:00:00 : #Veh=2798 lost=0 simT=64800.0s realT=21s; (s/r): 3085.714285714286
2023-02-16T11:04:50,386  INFO AbstractQNetsimEngine:366 SIMULATION (QNetsimEngine) AT 19:00:00 : #links=412 #nodes=602
2023-02-16T11:04:50,386  INFO QSim:566 SIMULATION (NEW QSim) AT 19:00:00 : #Veh=2008 lost=0 simT=68400.0s realT=22s; (s/r): 3109.090909090909
2023-02-16T11:04:51,291  INFO AbstractQNetsimEngine:366 SIMULATION (QNetsimEngine) AT 20:00:00 : #links=189 #nodes=358
2023-02-16T11:04:51,291  INFO QSim:566 SIMULATION (NEW QSim) AT 20:00:00 : #Veh=1316 lost=0 simT=72000.0s realT=23s; (s/r): 3130.4347826086955
2023-02-16T11:04:51,876  INFO AbstractQNetsimEngine:366 SIMULATION (QNetsimEngine) AT 21:00:00 : #links=126 #nodes=215
2023-02-16T11:04:51,876  INFO QSim:566 SIMULATION (NEW QSim) AT 21:00:00 : #Veh=958 lost=0 simT=75600.0s realT=24s; (s/r): 3150.0
2023-02-16T11:04:52,302  INFO AbstractQNetsimEngine:366 SIMULATION (QNetsimEngine) AT 22:00:00 : #links=93 #nodes=172
2023-02-16T11:04:52,302  INFO QSim:566 SIMULATION (NEW QSim) AT 22:00:00 : #Veh=713 lost=0 simT=79200.0s realT=24s; (s/r): 3300.0
2023-02-16T11:04:52,692  INFO AbstractQNetsimEngine:366 SIMULATION (QNetsimEngine) AT 23:00:00 : #links=79 #nodes=129
2023-02-16T11:04:52,692  INFO QSim:566 SIMULATION (NEW QSim) AT 23:00:00 : #Veh=464 lost=0 simT=82800.0s realT=25s; (s/r): 3312.0
2023-02-16T11:04:53,108  INFO AbstractQNetsimEngine:366 SIMULATION (QNetsimEngine) AT 24:00:00 : #links=78 #nodes=14
2023-02-16T11:04:53,108  INFO QSim:566 SIMULATION (NEW QSim) AT 24:00:00 : #Veh=196 lost=0 simT=86400.0s realT=25s; (s/r): 3456.0
2023-02-16T11:04:53,259  INFO AbstractQNetsimEngine:366 SIMULATION (QNetsimEngine) AT 25:00:00 : #links=1 #nodes=2
2023-02-16T11:04:53,259  INFO QSim:566 SIMULATION (NEW QSim) AT 25:00:00 : #Veh=102 lost=0 simT=90000.0s realT=25s; (s/r): 3600.0
2023-02-16T11:04:53,383  INFO AbstractQNetsimEngine:366 SIMULATION (QNetsimEngine) AT 26:00:00 : #links=1 #nodes=0
2023-02-16T11:04:53,384  INFO QSim:566 SIMULATION (NEW QSim) AT 26:00:00 : #Veh=100 lost=0 simT=93600.0s realT=25s; (s/r): 3744.0
2023-02-16T11:04:53,502  INFO AbstractQNetsimEngine:366 SIMULATION (QNetsimEngine) AT 27:00:00 : #links=1 #nodes=0
2023-02-16T11:04:53,502  INFO QSim:566 SIMULATION (NEW QSim) AT 27:00:00 : #Veh=100 lost=0 simT=97200.0s realT=25s; (s/r): 3888.0
2023-02-16T11:04:53,620  INFO AbstractQNetsimEngine:366 SIMULATION (QNetsimEngine) AT 28:00:00 : #links=1 #nodes=0
2023-02-16T11:04:53,621  INFO QSim:566 SIMULATION (NEW QSim) AT 28:00:00 : #Veh=100 lost=0 simT=100800.0s realT=26s; (s/r): 3876.923076923077
2023-02-16T11:04:53,739  INFO AbstractQNetsimEngine:366 SIMULATION (QNetsimEngine) AT 29:00:00 : #links=1 #nodes=0
2023-02-16T11:04:53,739  INFO QSim:566 SIMULATION (NEW QSim) AT 29:00:00 : #Veh=99 lost=0 simT=104400.0s realT=26s; (s/r): 4015.3846153846152
2023-02-16T11:04:53,860  INFO AbstractQNetsimEngine:366 SIMULATION (QNetsimEngine) AT 30:00:00 : #links=1 #nodes=0
2023-02-16T11:04:53,860  INFO QSim:566 SIMULATION (NEW QSim) AT 30:00:00 : #Veh=99 lost=0 simT=108000.0s realT=26s; (s/r): 4153.846153846154
2023-02-16T11:04:53,965  INFO AbstractController$9:235 ### ITERATION 20 fires after mobsim event
2023-02-16T11:04:53,966  INFO ControlerListenerManagerImpl:249 calling notifyAfterMobsim on org.matsim.analysis.LegTimesControlerListener
2023-02-16T11:04:53,966  INFO Gbl:192 Thread performance: Thread=class org.matsim.core.events.SimStepParallelEventsManagerImpl$ProcessEventsRunnable0  cpu-time=15.34375sec
2023-02-16T11:04:53,971  INFO LegTimesControlerListener:51 [20] average trip (probably: leg) duration is: 1584 seconds = 00:26:24
2023-02-16T11:04:53,971  INFO ControlerListenerManagerImpl:249 calling notifyAfterMobsim on org.matsim.core.events.MobsimScopeEventHandling
2023-02-16T11:04:53,971  INFO ControlerListenerManagerImpl:249 calling notifyAfterMobsim on org.matsim.core.scoring.EventsToActivities$1
2023-02-16T11:04:53,972  INFO ControlerListenerManagerImpl:252 [it.20] all ControlerAfterMobsimListeners called.
2023-02-16T11:04:53,972  INFO AbstractController$4:160 ### ITERATION 20 fires scoring event
2023-02-16T11:04:53,972  INFO ControlerListenerManagerImpl:184 calling notifyScoring on org.matsim.core.scoring.PlansScoringImpl
2023-02-16T11:04:53,973  INFO NewScoreAssignerImpl:58 it: 20 msaStart: null
2023-02-16T11:04:53,974  INFO ControlerListenerManagerImpl:195 [it.20] all ControlerScoringListeners called.
2023-02-16T11:04:53,974  INFO AbstractController$5:168 ### ITERATION 20 fires iteration end event
2023-02-16T11:04:53,974  INFO ControlerListenerManagerImpl:161 calling notifyIterationEnds on org.matsim.core.controler.corelisteners.EventsHandlingImpl
2023-02-16T11:04:53,978  INFO EventsManagerImpl:159 removing Event-Handler: org.matsim.core.events.algorithms.EventWriterXML
2023-02-16T11:04:53,978  INFO EventsManagerImpl:159 removing Event-Handler: org.matsim.core.events.algorithms.EventWriterXML
2023-02-16T11:04:53,978  INFO ControlerListenerManagerImpl:161 calling notifyIterationEnds on org.matsim.core.scoring.PlansScoringImpl
2023-02-16T11:04:53,978  INFO ControlerListenerManagerImpl:168 calling notifyIterationEnds on org.matsim.counts.CountsControlerListener
2023-02-16T11:04:54,696  INFO CountSimComparisonTableWriter:94 Writing CountsSimComparison to output/ITERS/it.20/20.countscompare.txt
2023-02-16T11:04:54,704  INFO CountSimComparisonTableWriter:135 Writing 'average weekday traffic volume' to output/ITERS/it.20/20.countscompareAWTV.txt
2023-02-16T11:04:54,710  INFO ControlerListenerManagerImpl:168 calling notifyIterationEnds on org.matsim.analysis.ModeStatsControlerListener
2023-02-16T11:04:54,712  INFO ModeStatsControlerListener:145 Mode shares over all 228.0 trips found. MainModeIdentifier: class org.matsim.core.router.RoutingModeMainModeIdentifier
2023-02-16T11:04:54,712  INFO ModeStatsControlerListener:152 -- mode share of mode pt = 0.5175438596491229
2023-02-16T11:04:54,712  INFO ModeStatsControlerListener:152 -- mode share of mode walk = 0.4824561403508772
2023-02-16T11:04:54,905  INFO ControlerListenerManagerImpl:168 calling notifyIterationEnds on org.matsim.analysis.ScoreStatsControlerListener
2023-02-16T11:04:54,906  INFO ScoreStatsControlerListener:182 -- avg. score of the executed plan of each agent: -407.47120406306715
2023-02-16T11:04:54,906  INFO ScoreStatsControlerListener:183 -- avg. score of the worst plan of each agent: -559.3975784800282
2023-02-16T11:04:54,906  INFO ScoreStatsControlerListener:184 -- avg. of the avg. plan score per agent: -450.89270448377806
2023-02-16T11:04:54,907  INFO ScoreStatsControlerListener:185 -- avg. score of the best plan of each agent: -353.598298832021
2023-02-16T11:04:54,960  INFO ControlerListenerManagerImpl:168 calling notifyIterationEnds on org.matsim.analysis.IterationTravelStatsControlerListener
2023-02-16T11:04:54,969  INFO TravelDistanceStats:144 -- average leg distance per plan (executed plans only): 6030.290647526343 meters
2023-02-16T11:04:54,969  INFO TravelDistanceStats:145 average leg distance per Person (executed plans only): 65010.764963244525 meters (statistic on all 1229 legs which have a finite distance)
2023-02-16T11:04:54,969  INFO TravelDistanceStats:146 -- average trip distance per plan (executed plans only): 84587.08858674396 meters
2023-02-16T11:04:54,969  INFO TravelDistanceStats:147 average trip distance per Person (executed plans only): 48971.47233969387 meters (statistic on all 66 trips which have a finite distance)
2023-02-16T11:04:54,969  INFO TravelDistanceStats:148 (TravelDistanceStats takes an average over all legs where the simulation reports travelled (network) distances
2023-02-16T11:04:54,969  INFO TravelDistanceStats:149 (and teleported legs whose route contains a distance.)
2023-02-16T11:04:55,359  INFO ControlerListenerManagerImpl:168 calling notifyIterationEnds on org.matsim.analysis.LegHistogramListener
2023-02-16T11:04:55,367  INFO LegHistogramListener:73 number of legs:	1327	100%
2023-02-16T11:04:55,367  INFO LegHistogramListener:80 number of pt legs:	667	50.263752825923135%
2023-02-16T11:04:55,367  INFO LegHistogramListener:80 number of walk legs:	660	49.736247174076865%
2023-02-16T11:04:55,594  INFO ControlerListenerManagerImpl:168 calling notifyIterationEnds on org.matsim.analysis.LinkStatsControlerListener
2023-02-16T11:04:55,595  INFO ControlerListenerManagerImpl:172 [it.20] all ControlerIterationEndsListeners called.
2023-02-16T11:04:55,688  INFO AbstractController:182 ### ITERATION 20 ENDS
2023-02-16T11:04:55,688  INFO AbstractController:183 ###################################################
2023-02-16T11:04:55,690  INFO MatsimRuntimeModifications:80 S H U T D O W N   ---   start shutdown.
2023-02-16T11:04:55,703  INFO ControlerListenerManagerImpl:122 calling notifyShutdown on org.matsim.core.controler.corelisteners.EventsHandlingImpl
2023-02-16T11:04:55,703  INFO ControlerListenerManagerImpl:122 calling notifyShutdown on org.matsim.core.controler.corelisteners.DumpDataAtEndImpl
2023-02-16T11:04:55,823  INFO Counter:70 [PopulationWriter] dumped person # 1
2023-02-16T11:04:55,828  INFO Counter:70 [PopulationWriter] dumped person # 2
2023-02-16T11:04:55,833  INFO Counter:70 [PopulationWriter] dumped person # 4
2023-02-16T11:04:55,868  INFO MemoryObserver:42 used RAM: 10070 MB  free: 1929 MB  total: 12000 MB
2023-02-16T11:04:55,883  INFO Counter:70 [PopulationWriter] dumped person # 8
2023-02-16T11:04:55,971  INFO Counter:70 [PopulationWriter] dumped person # 16
2023-02-16T11:04:56,111  INFO Counter:70 [PopulationWriter] dumped person # 32
2023-02-16T11:04:56,302  INFO Counter:70 [PopulationWriter] dumped person # 64
2023-02-16T11:04:56,632  INFO PopulationWriter:145 Population written to: output/output_plans.xml.gz
2023-02-16T11:04:56,646  INFO Counter:75 [PopulationWriter] dumped person # 114
2023-02-16T11:04:58,621  INFO NetworkWriter:70 Writing network to file: output/output_network.xml.gz...
2023-02-16T11:04:59,946  INFO NetworkWriter:73 done.
2023-02-16T11:04:59,970  INFO Config:602 setting context to [file:/C:/Users/s210749/Documents/Modelling/matsim-libs-master/]
2023-02-16T11:04:59,995  INFO Config:602 setting context to [file:/C:/Users/s210749/Documents/Modelling/matsim-libs-master/]
2023-02-16T11:04:59,999  INFO Config:602 setting context to [file:/C:/Users/s210749/Documents/Modelling/matsim-libs-master/]
2023-02-16T11:05:00,001  INFO Config:602 setting context to [file:/C:/Users/s210749/Documents/Modelling/matsim-libs-master/]
2023-02-16T11:05:00,003  INFO Config:602 setting context to [file:/C:/Users/s210749/Documents/Modelling/matsim-libs-master/]
2023-02-16T11:05:00,006  INFO Config:602 setting context to [file:/C:/Users/s210749/Documents/Modelling/matsim-libs-master/]
2023-02-16T11:05:00,012  INFO Config:602 setting context to [file:/C:/Users/s210749/Documents/Modelling/matsim-libs-master/]
2023-02-16T11:05:00,024  INFO Config:602 setting context to [file:/C:/Users/s210749/Documents/Modelling/matsim-libs-master/]
2023-02-16T11:05:00,027  INFO Config:602 setting context to [file:/C:/Users/s210749/Documents/Modelling/matsim-libs-master/]
2023-02-16T11:05:00,031  INFO Config:602 setting context to [file:/C:/Users/s210749/Documents/Modelling/matsim-libs-master/]
2023-02-16T11:05:00,033  INFO Config:602 setting context to [file:/C:/Users/s210749/Documents/Modelling/matsim-libs-master/]
2023-02-16T11:05:00,035  INFO Config:602 setting context to [file:/C:/Users/s210749/Documents/Modelling/matsim-libs-master/]
2023-02-16T11:05:00,036  INFO Config:602 setting context to [file:/C:/Users/s210749/Documents/Modelling/matsim-libs-master/]
2023-02-16T11:05:00,038  INFO Config:602 setting context to [file:/C:/Users/s210749/Documents/Modelling/matsim-libs-master/]
2023-02-16T11:05:00,040  INFO Config:602 setting context to [file:/C:/Users/s210749/Documents/Modelling/matsim-libs-master/]
2023-02-16T11:05:00,048  INFO Config:602 setting context to [file:/C:/Users/s210749/Documents/Modelling/matsim-libs-master/]
2023-02-16T11:05:00,051  INFO Config:602 setting context to [file:/C:/Users/s210749/Documents/Modelling/matsim-libs-master/]
2023-02-16T11:05:00,054  INFO Config:602 setting context to [file:/C:/Users/s210749/Documents/Modelling/matsim-libs-master/]
2023-02-16T11:05:00,055  INFO Config:602 setting context to [file:/C:/Users/s210749/Documents/Modelling/matsim-libs-master/]
2023-02-16T11:05:00,062  INFO Config:602 setting context to [file:/C:/Users/s210749/Documents/Modelling/matsim-libs-master/]
2023-02-16T11:05:00,064  INFO Config:602 setting context to [file:/C:/Users/s210749/Documents/Modelling/matsim-libs-master/]
2023-02-16T11:05:00,067  INFO Config:602 setting context to [file:/C:/Users/s210749/Documents/Modelling/matsim-libs-master/]
2023-02-16T11:05:00,070  INFO Config:602 setting context to [file:/C:/Users/s210749/Documents/Modelling/matsim-libs-master/]
2023-02-16T11:05:00,072  INFO Config:602 setting context to [file:/C:/Users/s210749/Documents/Modelling/matsim-libs-master/]
2023-02-16T11:05:00,074  INFO Config:602 setting context to [file:/C:/Users/s210749/Documents/Modelling/matsim-libs-master/]
2023-02-16T11:05:00,078  INFO Config:602 setting context to [file:/C:/Users/s210749/Documents/Modelling/matsim-libs-master/]
2023-02-16T11:05:00,079  INFO Config:602 setting context to [file:/C:/Users/s210749/Documents/Modelling/matsim-libs-master/]
2023-02-16T11:05:00,106  INFO TransitScheduleWriter:88 about to write transit schedule to: output/output_transitSchedule.xml.gz
2023-02-16T11:05:02,182  INFO MatsimVehicleWriter:55 about to write vehicles to: output/output_transitVehicles.xml.gz
2023-02-16T11:05:02,182  INFO VehicleWriterV2:64 about to write vehicles to: output/output_transitVehicles.xml.gz
2023-02-16T11:05:02,248  INFO MatsimVehicleWriter:55 about to write vehicles to: output/output_vehicles.xml.gz
2023-02-16T11:05:02,248  INFO VehicleWriterV2:64 about to write vehicles to: output/output_vehicles.xml.gz
2023-02-16T11:05:02,253  INFO MatsimVehicleWriter:55 about to write vehicles to: output/output_allVehicles.xml.gz
2023-02-16T11:05:02,253  INFO VehicleWriterV2:64 about to write vehicles to: output/output_allVehicles.xml.gz
2023-02-16T11:05:02,284  INFO HouseholdsWriterV10:67 about to write  households to: output/output_households.xml.gz
2023-02-16T11:05:02,287  INFO Counter:75 [HouseholdsWriter] wrote household # 0
2023-02-16T11:05:02,386  INFO ControlerListenerManagerImpl:127 calling notifyShutdown on org.matsim.analysis.ScoreStatsControlerListener
2023-02-16T11:05:02,390  INFO ControlerListenerManagerImpl:127 calling notifyShutdown on org.matsim.analysis.IterationTravelStatsControlerListener
2023-02-16T11:05:02,394  INFO IterationTravelStatsControlerListener:109 Writing all Person and Attributes to personscsv
2023-02-16T11:05:02,404  INFO IterationTravelStatsControlerListener:153 ...done
2023-02-16T11:05:02,404  INFO ControlerListenerManagerImpl:130 all ControlerShutdownListeners called.
2023-02-16T11:05:02,404  INFO MatsimRuntimeModifications:103 S H U T D O W N   ---   shutdown completed.
2023-02-16T11:05:02,405  INFO OutputDirectoryLogging:171 closing the logfile, i.e. messages sent to the logger after this message are not written to the logfile.
